16  
    
  C     4.553071  5.178598  1.858449
  C     4.636753  8.506535  1.449568
  C     3.387699  4.598735  1.223000
  C     3.398006  8.154797  0.732101
  N     5.634511  5.279884  1.051157
  N     5.694606  8.659694  0.651919
  N     3.523517  4.472833 -0.087613
  N     3.632901  7.853060 -0.549052
  N     2.715224  4.723271  3.687453
  N     2.809282  8.365724  3.280843
  S     2.006048  4.510640  2.226029
  S     2.034943  7.961185  1.835117
  S     5.005615  5.018892 -0.528722
  S     5.221899  8.182963 -0.909682
  S     4.279332  5.301231  3.652698
  S     4.395180  8.887040  3.125793
