16  
    
  C     9.136549  6.814119  2.571344
  C     9.704526 10.765282  2.772581
  C     7.934813  6.425582  1.838842
  C     8.456174 10.196200  2.199353
  N    10.199065  7.109084  1.825640
  N    10.629870 11.072030  1.881345
  N     8.175019  6.274690  0.539514
  N     8.571876 10.045449  0.872843
  N     7.352999  6.535926  4.417542
  N     8.083236 10.248519  4.790512
  S     6.650909  5.970785  3.031112
  S     7.309443  9.749676  3.416816
  S     9.730841  6.760860  0.279564
  S     9.981742 10.655881  0.370440
  S     9.011914  6.764301  4.266045
  S     9.586699 10.943450  4.491900
