16  
    
  C     5.921307  5.091089  1.662513
  C     6.028506  8.887192  2.095596
  C     4.639183  4.848538  1.069613
  C     4.803086  8.536833  1.440286
  N     6.934422  5.234399  0.800975
  N     7.109906  8.962065  1.307691
  N     4.678857  4.630252 -0.232036
  N     4.884394  8.522101  0.109997
  N     4.120094  5.178604  3.590681
  N     4.228924  8.781211  3.929664
  S     3.339361  4.752452  2.222287
  S     3.392192  8.589791  2.494294
  S     6.241882  5.039962 -0.699398
  S     6.423621  8.807266 -0.246150
  S     5.787338  5.485592  3.368213
  S     5.831993  9.112493  3.833152
