16  
    
  C     4.236945  4.774566  1.326302
  C     4.347940  8.440745  1.311492
  C     2.968925  4.605118  0.662583
  C     3.097887  7.951088  0.681851
  N     5.298142  5.063234  0.554903
  N     5.354164  8.374723  0.444822
  N     3.125052  4.447212 -0.643419
  N     3.193999  7.849957 -0.650592
  N     2.498221  4.888324  3.252222
  N     2.593400  8.229217  3.234516
  S     1.648168  4.561018  1.851524
  S     1.779490  7.777160  1.803276
  S     4.771018  4.768638 -0.957405
  S     4.792082  8.002095 -1.036160
  S     4.149728  5.022613  3.001507
  S     4.211145  8.651078  3.026451
