16  
    
  C     5.117882  4.976740  1.674970
  C     4.975366  8.692581  1.796040
  C     3.736379  4.721475  1.274525
  C     3.652071  8.428839  1.254182
  N     5.971507  5.011276  0.643731
  N     5.974162  8.755065  0.912255
  N     3.551002  4.814184 -0.043549
  N     3.642432  8.065398 -0.029874
  N     3.593991  4.787822  3.824707
  N     3.342925  8.684545  3.848824
  S     2.534315  4.571389  2.490370
  S     2.445694  8.343613  2.505877
  S     5.011292  4.941160 -0.739121
  S     5.249370  8.323822 -0.557566
  S     5.213962  4.813376  3.474151
  S     4.925172  9.078959  3.472161
