16  
    
  C    12.388741  9.082608  3.349737
  C    12.293424 12.766788  3.454791
  C    11.292031  8.500606  2.650149
  C    11.077423 12.244981  2.927239
  N    13.501394  9.411976  2.692750
  N    13.237510 12.998334  2.557813
  N    11.482743  8.545777  1.319779
  N    11.077724 12.017296  1.609027
  N    10.560388  8.437058  5.182827
  N    10.755496 12.721366  5.471314
  S     9.966552  8.071039  3.689697
  S    10.002774 11.805659  4.232489
  S    13.090011  9.201491  1.101304
  S    12.623317 12.478289  1.155714
  S    12.095429  9.176366  5.046253
  S    12.324742 13.037696  5.131400
