16  
    
  C     7.178265  6.082966  2.108639
  C     7.406495  9.689331  2.505431
  C     6.059982  5.523678  1.391305
  C     6.185075  9.471011  1.830062
  N     8.259416  6.243635  1.349844
  N     8.445781  9.738344  1.659305
  N     6.317214  5.341930  0.101462
  N     6.243308  9.255098  0.513590
  N     5.246487  5.713826  3.778344
  N     5.559249  9.504136  4.274861
  S     4.701944  5.093247  2.321265
  S     4.792623  9.535819  2.785130
  S     7.876929  5.686026 -0.170996
  S     7.900692  9.362383  0.171193
  S     6.801960  6.261774  3.864106
  S     7.151306  9.968837  4.229132
