16  
    
  C    11.414979  8.648814  3.357920
  C    11.506737 12.379734  3.344165
  C    10.223847  7.968495  2.783342
  C    10.412490 11.680527  2.722828
  N    12.448965  8.766016  2.507248
  N    12.522507 12.624097  2.535944
  N    10.349469  7.628196  1.480080
  N    10.530792 11.536954  1.412319
  N     9.595351  8.523074  5.163149
  N     9.586266 12.036001  5.090386
  S     8.914461  7.679702  3.893997
  S     8.952396 11.559910  3.665767
  S    11.882971  8.148593  1.038109
  S    12.049944 11.998798  0.963856
  S    11.091912  9.196965  4.969986
  S    11.092023 12.681918  5.002446
