16  
    
  C    12.363959  9.083305  3.782149
  C    12.594284 12.844289  3.558675
  C    11.306545  8.367451  3.098012
  C    11.304429 12.507300  2.962505
  N    13.292713  9.416788  2.877063
  N    13.604618 12.901668  2.701285
  N    11.399243  8.327771  1.755953
  N    11.350969 12.363296  1.653232
  N    10.549061  8.474579  5.607705
  N    10.818833 12.656340  5.457056
  S     9.955192  7.979652  4.097271
  S    10.052257 12.231585  4.020368
  S    12.796348  8.992895  1.332242
  S    12.907640 12.681354  1.184668
  S    12.084209  9.271558  5.524984
  S    12.493348 12.896018  5.289704
