16  
    
  C    11.472589  8.807725  3.205115
  C    11.428733 12.245567  3.287963
  C    10.364033  8.070955  2.744071
  C    10.239040 11.859290  2.542952
  N    12.427829  9.087329  2.309674
  N    12.434181 12.633000  2.525718
  N    10.500750  7.690258  1.472933
  N    10.383281 11.803543  1.214340
  N     9.853544  8.312758  5.212141
  N     9.474672 11.842581  5.073102
  S     9.073249  7.762697  3.830713
  S     8.928260 11.333527  3.538607
  S    11.927333  8.380565  0.872499
  S    11.991516 12.176812  0.937114
  S    11.407846  8.987277  4.923557
  S    11.076014 12.339493  4.991593
