16  
    
  C    12.907061  9.256236  3.441185
  C    12.913335 12.899291  3.523057
  C    11.803614  8.511425  2.845758
  C    11.649545 12.513049  2.893773
  N    13.912418  9.473341  2.605655
  N    13.934811 12.936762  2.661025
  N    11.913756  8.302823  1.522808
  N    11.782555 12.088863  1.619228
  N    10.979391  9.162059  5.241973
  N    11.160533 13.101862  5.379104
  S    10.333578  8.441995  3.914659
  S    10.277218 12.523243  4.010493
  S    13.443442  8.843933  1.087909
  S    13.356054 12.441927  1.165652
  S    12.596242  9.580583  5.128147
  S    12.861244 13.403239  5.170557
