16  
    
  C     9.659419  7.616068  2.783308
  C    10.054121 11.191790  2.683571
  C     8.541648  6.924433  2.157041
  C     8.760997 10.789053  2.056108
  N    10.681951  7.753593  1.939862
  N    11.047707 11.298824  1.832250
  N     8.710145  6.638087  0.859223
  N     8.820262 10.727450  0.738906
  N     7.882842  7.240704  4.581765
  N     8.299605 11.089044  4.600072
  S     7.187759  6.673632  3.177905
  S     7.463397 10.802524  3.233173
  S    10.229627  7.144433  0.477247
  S    10.372304 11.058409  0.281128
  S     9.286333  8.053800  4.473795
  S     9.936031 11.407120  4.392894
