16  
    
  C    12.328515  8.913872  3.691293
  C    12.458509 12.670955  3.407466
  C    11.114684  8.384621  3.081509
  C    11.186539 12.235586  2.799552
  N    13.328044  8.971826  2.823164
  N    13.455014 12.972530  2.601780
  N    11.269121  8.102543  1.757282
  N    11.404548 11.940326  1.527885
  N    10.684100  9.003668  5.492699
  N    10.778433 12.708108  5.358531
  S     9.781593  8.602462  4.244202
  S     9.937814 12.081717  4.012282
  S    12.808532  8.501083  1.348645
  S    12.936268 12.519985  1.072959
  S    12.285001  9.419007  5.321569
  S    12.400846 12.904830  5.121582
