16  
    
  C     8.716222  7.146028  2.673100
  C     8.953468 10.967632  2.293862
  C     7.557497  6.532339  2.198468
  C     7.761896 10.549225  1.622299
  N     9.663635  7.436352  1.784890
  N     9.891665 11.400887  1.504487
  N     7.650758  6.262511  0.898210
  N     7.816987 10.621305  0.283811
  N     7.225965  6.985594  4.758828
  N     7.215800 10.501930  4.133682
  S     6.371622  6.200075  3.476979
  S     6.454432 10.054465  2.719503
  S     9.135292  6.828921  0.378502
  S     9.396465 11.198302 -0.072666
  S     8.698107  7.577126  4.335848
  S     8.739703 11.141768  4.005546
