16  
    
  C     6.912565  6.010020  1.606823
  C     7.312296  9.899915  2.475933
  C     5.841736  5.093920  1.173156
  C     6.001676  9.547610  1.926412
  N     7.933193  6.167104  0.736951
  N     8.337652  9.854986  1.603709
  N     5.972667  4.694273 -0.081502
  N     6.076893  9.168690  0.647508
  N     5.170580  5.815718  3.571356
  N     5.538979  9.873662  4.454327
  S     4.522726  4.949472  2.286921
  S     4.683412  9.536475  3.023879
  S     7.383301  5.367474 -0.648865
  S     7.600860  9.402404  0.123433
  S     6.720132  6.415089  3.352069
  S     7.173582 10.278669  4.220518
