16  
    
  C     5.204847  5.367303  1.820841
  C     5.089386  8.858045  1.301372
  C     3.882991  5.077079  1.294240
  C     3.863413  8.291684  0.827057
  N     6.170680  5.343308  0.902475
  N     6.099087  8.897152  0.429269
  N     3.920633  4.531385  0.058524
  N     3.866289  8.081680 -0.488664
  N     3.559525  5.523046  3.748296
  N     3.486499  8.907680  3.273990
  S     2.607013  5.282606  2.487064
  S     2.580749  8.331557  2.010049
  S     5.432359  4.858881 -0.495261
  S     5.377449  8.446279 -1.006316
  S     5.158527  5.915057  3.466164
  S     5.107099  9.158645  3.016057
