16  
    
  C     9.816667  7.676060  2.858472
  C    10.614417 11.529833  3.149821
  C     8.787118  7.073918  2.042801
  C     9.406114 11.041950  2.475531
  N    10.961084  7.975801  2.209581
  N    11.629529 11.559789  2.311473
  N     9.113876  6.985372  0.734894
  N     9.507246 10.982585  1.156956
  N     7.806637  7.337057  4.470274
  N     8.780905 11.437640  4.919752
  S     7.367519  6.605811  2.990981
  S     8.061980 10.896529  3.561826
  S    10.634887  7.580834  0.641522
  S    11.099883 11.246836  0.790326
  S     9.395908  7.844001  4.467401
  S    10.367417 11.863341  4.793908
