16  
    
  C    12.002035  8.802205  3.385565
  C    11.869235 12.194774  3.283038
  C    10.741835  8.530841  2.714042
  C    10.580721 11.787587  2.751311
  N    13.094458  8.897672  2.677003
  N    12.786180 12.419091  2.338261
  N    10.943888  8.453541  1.404889
  N    10.530848 11.766279  1.397377
  N    10.240156  8.499996  5.228712
  N    10.280895 12.108715  5.354805
  S     9.402929  8.269821  3.801052
  S     9.337243 11.869073  3.948553
  S    12.557368  8.654088  1.087080
  S    12.055147 12.207372  0.863948
  S    11.886733  8.769073  5.112242
  S    11.913341 12.171615  4.959773
