16  
    
  C     6.614888  5.777331  2.051124
  C     6.634169  9.404644  1.899849
  C     5.325657  5.387388  1.478350
  C     5.421531  8.883293  1.244050
  N     7.580905  5.899445  1.149283
  N     7.634778  9.658531  1.051539
  N     5.376575  5.185922  0.170623
  N     5.534432  8.730865 -0.059389
  N     4.861589  5.794994  3.971512
  N     4.841137  8.993467  3.770833
  S     4.009396  5.310612  2.653840
  S     4.081333  8.606738  2.320490
  S     6.923877  5.577566 -0.349481
  S     7.018721  9.298250 -0.525346
  S     6.522697  6.087644  3.728819
  S     6.387187  9.624000  3.655280
