16  
    
  C     5.520601  5.338190  1.796801
  C     5.146761  8.961838  1.699515
  C     4.222315  5.123005  1.278111
  C     3.937282  8.557174  1.020196
  N     6.510559  5.402488  0.897227
  N     6.184810  9.123637  0.873247
  N     4.137639  5.056908 -0.044180
  N     4.079809  8.366352 -0.283868
  N     3.899631  5.185580  3.896944
  N     3.356012  8.644413  3.508690
  S     2.963927  5.162559  2.480832
  S     2.599163  8.233280  2.104263
  S     5.695198  5.214945 -0.602553
  S     5.728712  8.689518 -0.651147
  S     5.537397  5.388442  3.518591
  S     4.963156  9.192758  3.410737
