16  
    
  C     8.694244  7.112573  2.618730
  C     9.033588 10.884471  2.140841
  C     7.493688  6.613353  1.967630
  C     7.785545 10.575600  1.431680
  N     9.534911  7.674728  1.779775
  N    10.060191 11.154929  1.352667
  N     7.595588  6.538850  0.650680
  N     7.938301 10.509397  0.119597
  N     7.105224  6.639063  4.489145
  N     7.292599 10.439941  3.951375
  S     6.254662  6.314246  3.075147
  S     6.493352 10.341881  2.529465
  S     9.030696  7.340066  0.272687
  S     9.553328 10.925085 -0.219750
  S     8.577918  7.352833  4.311042
  S     8.877306 10.902529  3.855063
