16  
    
  C     5.373066  5.459619  1.778181
  C     5.166374  8.837552  1.764481
  C     4.154331  5.219159  0.978212
  C     3.931283  8.519093  1.105215
  N     6.477192  5.558466  1.041738
  N     6.169254  9.078900  0.932925
  N     4.356395  5.118195 -0.322133
  N     4.002062  8.536835 -0.202262
  N     3.404617  5.314601  3.451964
  N     3.433762  8.434597  3.592295
  S     2.721637  5.181007  1.953805
  S     2.619927  8.301355  2.158345
  S     6.007083  5.263041 -0.555705
  S     5.531877  9.011278 -0.581531
  S     5.086613  5.751688  3.472745
  S     4.991656  8.901892  3.453499
