16  
    
  C     9.317527  6.728228  2.421834
  C     9.193769 10.703042  2.931638
  C     8.128876  6.314757  1.776380
  C     7.977791 10.501896  2.277005
  N    10.364372  6.671212  1.586366
  N    10.260724 10.573852  2.124109
  N     8.216670  5.867085  0.521984
  N     8.038225 10.057227  1.017802
  N     7.358009  6.887647  4.167412
  N     7.398804 10.822998  4.760224
  S     6.710070  6.300945  2.752099
  S     6.592225 10.708904  3.333019
  S     9.851941  5.998193  0.129213
  S     9.735869 10.007227  0.672870
  S     8.973939  7.229639  4.131272
  S     9.035058 11.101491  4.647231
