16  
    
  C    11.632903  8.601164  3.207844
  C    11.378055 12.250899  3.300780
  C    10.436367  7.980765  2.617345
  C    10.232039 11.734906  2.604013
  N    12.516980  8.957349  2.315919
  N    12.399372 12.612195  2.494414
  N    10.487509  7.944039  1.306635
  N    10.428419 11.514335  1.301184
  N    10.022786  8.223780  5.165224
  N     9.463063 11.888094  5.088424
  S     9.243363  7.762624  3.821634
  S     8.830961 11.344709  3.559671
  S    11.976948  8.563440  0.807468
  S    11.889546 12.283839  0.977199
  S    11.566165  8.856979  4.951878
  S    11.122440 12.227430  5.043408
