16  
    
  C    11.968547  8.622939  3.415374
  C    11.821573 12.080279  3.179763
  C    10.758320  8.050631  2.930849
  C    10.539249 11.666286  2.625577
  N    12.923178  8.923830  2.521527
  N    12.824167 12.098354  2.279694
  N    10.786302  7.819796  1.628431
  N    10.499448 11.662506  1.315337
  N    10.351788  8.460167  5.403714
  N    10.039893 11.883567  5.142543
  S     9.490729  7.903558  4.090763
  S     9.195766 11.532561  3.736465
  S    12.284054  8.250508  1.079795
  S    12.081721 12.026869  0.803632
  S    11.870011  8.962649  5.116447
  S    11.661894 12.350471  4.904932
