16  
    
  C    12.753602  8.988639  3.786566
  C    12.800381 12.445890  3.688590
  C    11.512059  8.596353  3.198427
  C    11.603234 12.068404  3.041880
  N    13.657836  9.243146  2.882722
  N    13.831097 12.727250  2.904501
  N    11.447981  8.428776  1.885984
  N    11.685435 12.101239  1.717193
  N    11.254191  8.442186  5.789239
  N    10.959773 12.275431  5.498809
  S    10.352385  8.157137  4.413007
  S    10.248204 11.879709  4.110452
  S    13.001267  8.933993  1.372802
  S    13.203523 12.588057  1.346311
  S    12.628910  9.246404  5.578776
  S    12.570136 12.707095  5.402069
