16  
    
  C     4.302203  5.056817  1.151028
  C     4.464356  8.231109  1.369900
  C     3.044020  4.692077  0.529376
  C     3.270586  7.878185  0.671906
  N     5.364225  5.036210  0.344552
  N     5.456033  8.627435  0.592689
  N     3.129298  4.708315 -0.785559
  N     3.409844  7.678004 -0.632512
  N     2.671269  4.663741  3.075057
  N     2.568085  8.223456  3.154495
  S     1.762363  4.678037  1.715280
  S     1.845254  7.717014  1.738529
  S     4.760692  4.745771 -1.202744
  S     4.939181  8.231537 -1.036005
  S     4.182947  5.229643  2.846847
  S     4.204259  8.446558  3.114299
