16  
    
  C     3.610368  4.955694  1.557676
  C     3.914687  8.203622  1.683546
  C     2.421746  4.361964  0.973735
  C     2.624763  7.994486  1.111552
  N     4.632941  5.037430  0.692672
  N     4.924578  8.380982  0.806174
  N     2.514991  4.167833 -0.334733
  N     2.649256  7.810749 -0.206544
  N     1.932465  4.323181  3.461130
  N     2.162603  8.183456  3.646159
  S     1.139914  3.942414  2.019868
  S     1.292150  7.859901  2.262108
  S     4.048439  4.611468 -0.845615
  S     4.214506  8.094988 -0.717253
  S     3.483003  4.758472  3.351355
  S     3.739288  8.555524  3.425562
