16  
    
  C    11.005748  7.862908  3.122773
  C    11.514826 12.006444  3.027474
  C     9.786245  7.519082  2.378461
  C    10.431046 11.231212  2.479437
  N    12.139128  7.951568  2.438061
  N    12.523775 12.120685  2.173583
  N     9.984833  7.343542  1.100081
  N    10.533568 10.905844  1.205925
  N     9.064189  7.837294  4.798319
  N     9.784278 11.504046  4.977378
  S     8.301960  7.373227  3.368762
  S     9.098401 10.873260  3.568838
  S    11.627510  7.599050  0.823464
  S    12.083302 11.370922  0.713326
  S    10.644883  8.048600  4.839309
  S    11.302788 12.250049  4.745390
