16  
    
  C     7.310520  6.021868  2.249640
  C     7.731752  9.592058  2.353531
  C     6.197358  5.474542  1.501609
  C     6.460399  9.318408  1.742945
  N     8.387404  6.197052  1.458071
  N     8.707870  9.779151  1.481432
  N     6.368538  5.459757  0.181882
  N     6.475212  9.294332  0.429349
  N     5.395589  5.674090  3.947116
  N     5.868577  9.773193  4.198926
  S     4.752051  5.243568  2.379051
  S     5.086262  9.268492  2.716999
  S     7.886886  5.905144 -0.088704
  S     8.087332  9.609835 -0.018388
  S     7.029701  6.023278  3.977941
  S     7.537886  9.763991  4.127372
