16  
    
  C    10.164478  7.403317  2.625095
  C    10.388139 10.982576  2.712904
  C     8.932340  6.949618  2.033908
  C     9.111320 10.969276  2.049187
  N    11.087791  7.582053  1.684632
  N    11.442749 10.949490  1.872989
  N     8.987077  6.695087  0.725289
  N     9.155333 10.976758  0.697739
  N     8.400537  7.322852  4.459234
  N     8.595001 10.910668  4.584488
  S     7.637632  6.788002  3.107483
  S     7.730221 10.942329  3.146981
  S    10.493959  7.076212  0.225047
  S    10.779699 10.989049  0.350071
  S    10.035136  7.540903  4.367367
  S    10.229879 11.085628  4.453857
