16  
    
  C     4.235810  4.909361  1.452228
  C     4.249900  8.353978  1.382985
  C     2.992989  4.511919  0.829383
  C     2.996134  8.007323  0.713225
  N     5.281581  4.931943  0.631918
  N     5.263363  8.456780  0.560808
  N     3.116338  4.391194 -0.497638
  N     3.116775  7.682232 -0.567867
  N     2.431465  4.746558  3.342362
  N     2.431928  8.300764  3.225866
  S     1.638655  4.510191  1.945642
  S     1.679328  7.895907  1.838547
  S     4.675358  4.647778 -0.894318
  S     4.691270  8.058505 -0.971167
  S     4.099881  4.989894  3.250837
  S     4.049217  8.641541  3.074277
