16  
    
  C     7.639241  6.329713  2.241064
  C     7.832925 10.105167  2.447367
  C     6.424669  5.816060  1.652615
  C     6.732448  9.448199  1.838673
  N     8.595584  6.437050  1.297411
  N     8.741568 10.485671  1.555474
  N     6.366396  5.747766  0.324944
  N     6.803929  9.268384  0.505906
  N     5.904737  5.976608  4.202038
  N     6.104123  9.566638  4.325764
  S     5.164127  5.492770  2.745935
  S     5.384421  9.154363  2.871780
  S     7.967629  6.050029 -0.204697
  S     8.246954  9.899792  0.040899
  S     7.545512  6.367690  3.993188
  S     7.670002 10.180125  4.204374
