16  
    
  C     7.659532  6.294932  2.206374
  C     7.816299 10.110587  2.440313
  C     6.401488  5.855970  1.645704
  C     6.656055  9.463385  1.791060
  N     8.645396  6.440366  1.335366
  N     8.785050 10.532223  1.612998
  N     6.388406  5.781175  0.325870
  N     6.822101  9.311326  0.506185
  N     5.938594  6.124343  4.231185
  N     6.092283  9.514422  4.354048
  S     5.176791  5.550966  2.809713
  S     5.339746  9.192616  2.881861
  S     7.923963  6.092749 -0.181892
  S     8.265097  9.890065  0.079613
  S     7.530256  6.390112  3.976009
  S     7.617665 10.205206  4.196045
