16  
    
  C    11.799189  8.606298  3.210829
  C    11.350866 12.161401  3.437809
  C    10.516721  8.242220  2.589687
  C    10.214518 11.695735  2.700951
  N    12.745369  8.785132  2.323179
  N    12.363091 12.528308  2.646696
  N    10.501469  8.248631  1.267588
  N    10.380672 11.475844  1.378391
  N    10.255904  8.035067  5.162052
  N     9.541129 11.601053  5.281007
  S     9.361799  7.781186  3.729888
  S     8.893261 11.232991  3.721175
  S    12.096627  8.616442  0.812016
  S    11.915478 12.098565  1.042565
  S    11.789343  8.581201  4.942911
  S    11.142522 12.304801  5.169399
