16  
    
  C    11.912414  8.559498  3.190699
  C    11.407338 12.095630  3.500478
  C    10.642762  8.227994  2.620201
  C    10.220149 11.634642  2.794786
  N    12.903344  8.763553  2.362407
  N    12.414856 12.465892  2.723270
  N    10.661850  8.206456  1.311660
  N    10.364187 11.541150  1.466964
  N    10.254925  8.007026  5.140158
  N     9.614696 11.641533  5.349699
  S     9.319517  7.999302  3.757374
  S     9.022775 11.106385  3.865274
  S    12.237063  8.606235  0.815026
  S    11.952596 11.959649  1.176484
  S    11.812291  8.415750  4.926287
  S    11.215228 12.273106  5.199761
