16  
    
  C     4.418012  5.198509  1.684790
  C     4.552229  8.399752  1.501065
  C     3.250627  4.608299  1.078095
  C     3.338243  8.068162  0.849079
  N     5.470496  5.417319  0.907336
  N     5.623618  8.505199  0.705809
  N     3.375684  4.555369 -0.257319
  N     3.469174  7.758638 -0.432718
  N     2.840656  4.815081  3.596960
  N     2.655311  8.710294  3.193711
  S     1.966714  4.467280  2.257528
  S     1.992485  7.846826  1.921851
  S     4.979989  4.940339 -0.602387
  S     5.037055  8.052555 -0.822652
  S     4.382327  5.336998  3.343424
  S     4.300419  8.899937  3.126447
