16  
    
  C    10.695610  8.466560  3.176775
  C    10.711388 11.857844  3.186822
  C     9.517988  7.830014  2.552767
  C     9.551688 11.390946  2.491632
  N    11.741633  8.567859  2.345308
  N    11.769499 11.999302  2.413204
  N     9.711660  7.490891  1.271914
  N     9.727345 11.267871  1.201265
  N     8.959707  8.183080  5.109050
  N     8.877291 11.760080  4.903967
  S     8.242675  7.538834  3.716464
  S     8.204019 11.161631  3.515618
  S    11.196225  8.018466  0.888761
  S    11.339467 11.549732  0.885665
  S    10.563261  8.780065  4.880574
  S    10.504098 12.046071  4.942930
