16  
    
  C     5.065373  5.099524  1.883433
  C     5.136313  8.631127  1.929703
  C     3.757643  4.987540  1.292091
  C     3.908547  8.321405  1.241429
  N     6.092803  5.102857  1.039510
  N     6.197184  8.601990  1.144643
  N     3.809650  4.837228 -0.019898
  N     4.092628  8.001427 -0.028820
  N     3.499930  4.782102  3.819737
  N     3.244713  8.781514  3.682193
  S     2.469622  4.847648  2.558603
  S     2.507108  8.448383  2.217956
  S     5.408134  5.030049 -0.493089
  S     5.653526  8.196806 -0.354962
  S     5.144967  5.049566  3.584604
  S     4.885062  8.965833  3.576331
