16  
    
  C     9.822273  7.449670  2.599698
  C    10.326037 11.412041  2.568754
  C     8.660608  6.693085  2.074130
  C     9.115481 10.836899  1.969313
  N    10.735746  7.686860  1.635044
  N    11.283074 11.553005  1.676985
  N     8.662806  6.378978  0.782637
  N     9.178977 10.657206  0.655768
  N     7.964117  7.378412  4.405111
  N     8.656377 11.104304  4.443964
  S     7.291666  6.549346  3.151354
  S     7.784962 10.837305  3.082579
  S    10.065479  7.057545  0.197513
  S    10.699590 11.102154  0.182339
  S     9.521420  7.929990  4.224524
  S    10.246621 11.547832  4.271027
