16  
    
  C     9.217605  6.857261  2.357298
  C     9.035200 11.106348  2.894280
  C     7.943961  6.518218  1.747595
  C     7.867895 10.566615  2.282382
  N    10.278706  6.855806  1.563614
  N    10.094194 11.208951  2.097408
  N     8.057050  6.169941  0.479340
  N     8.000246 10.266954  1.015758
  N     7.424686  6.822167  4.194773
  N     7.347887 10.809517  4.797264
  S     6.599536  6.350132  2.812336
  S     6.563484 10.314747  3.412483
  S     9.627894  6.411321  0.059059
  S     9.489925 10.677224  0.600590
  S     9.023325  7.296834  4.037709
  S     8.927201 11.383545  4.604736
