16  
    
  C    11.816857  8.593904  3.445510
  C    11.611806 11.884722  3.407622
  C    10.616263  8.226456  2.774862
  C    10.372056 11.650639  2.644241
  N    12.922024  8.689336  2.669233
  N    12.681475 12.074376  2.674510
  N    10.765016  8.055708  1.436269
  N    10.560687 11.653816  1.334426
  N     9.914946  8.469855  5.210214
  N     9.842103 11.664925  5.152526
  S     9.175311  8.284932  3.787637
  S     9.068671 11.392641  3.741573
  S    12.372092  8.425672  1.132005
  S    12.166154 11.802723  1.083887
  S    11.540333  8.795211  5.148819
  S    11.478304 11.955532  5.151763
