16  
    
  C    12.479245  9.100539  3.425557
  C    12.318212 12.738306  3.476531
  C    11.328641  8.601806  2.639119
  C    11.063361 12.173566  2.958669
  N    13.529193  9.416022  2.651837
  N    13.206189 13.095310  2.555639
  N    11.529709  8.483845  1.335657
  N    11.133682 12.026812  1.650551
  N    10.687150  8.470018  5.089114
  N    10.693737 12.613042  5.468271
  S     9.934328  8.110493  3.674991
  S     9.938758 11.806103  4.227025
  S    13.058858  9.108850  1.083627
  S    12.619696 12.491022  1.089762
  S    12.117011  9.133382  5.100836
  S    12.299306 13.066905  5.186220
