16  
    
  C     4.445710  5.052120  1.732093
  C     4.187789  8.608954  1.611691
  C     3.225982  4.601264  1.089718
  C     3.065219  8.269924  0.823348
  N     5.519465  5.162407  0.924345
  N     5.184901  9.138530  0.882756
  N     3.339564  4.594021 -0.252830
  N     3.293248  8.232815 -0.493727
  N     2.765892  4.849897  3.607901
  N     2.254103  8.131220  3.242713
  S     1.872296  4.799671  2.232238
  S     1.650865  7.722420  1.732805
  S     4.977413  4.785975 -0.565992
  S     4.802900  8.890502 -0.664651
  S     4.325419  5.322798  3.410308
  S     3.863678  8.536181  3.333468
