16  
    
  C     8.627351  6.896876  2.328430
  C     8.955564 10.219730  2.694589
  C     7.431154  6.439400  1.623361
  C     7.687666  9.993875  2.053728
  N     9.686161  7.169525  1.576321
  N    10.032192 10.375719  1.891164
  N     7.617287  6.290326  0.330921
  N     7.738990  9.971197  0.741835
  N     6.692999  6.549651  4.058179
  N     7.204846 10.307887  4.543355
  S     6.075389  6.014465  2.628671
  S     6.405350  9.862587  3.164738
  S     9.183832  6.670309 -0.014390
  S     9.319944 10.161703  0.316643
  S     8.341084  7.049395  4.075236
  S     8.837622 10.573879  4.379148
