16  
    
  C    11.869101  8.651078  3.324911
  C    11.521214 12.371715  3.143641
  C    10.597036  8.122731  2.894105
  C    10.362019 11.774265  2.508154
  N    12.800115  8.830997  2.382958
  N    12.540414 12.646629  2.344773
  N    10.602176  7.932465  1.573327
  N    10.629903 11.381739  1.276503
  N    10.368509  8.611407  5.429795
  N     9.833855 11.967026  5.113051
  S     9.415520  8.060665  4.144166
  S     9.062039 11.326181  3.702983
  S    12.134726  8.269195  1.017272
  S    12.131713 12.027711  0.858828
  S    11.883049  9.097094  4.954470
  S    11.458728 12.401557  4.835680
