16  
    
  C     9.954288  7.515637  2.491771
  C    10.372964 11.042738  2.645095
  C     8.760196  6.995274  1.943894
  C     9.130315 11.070731  1.965778
  N    10.982567  7.607990  1.635289
  N    11.438634 11.066107  1.874955
  N     8.822782  6.704131  0.654533
  N     9.179888 11.011485  0.654455
  N     8.308930  7.222310  4.495637
  N     8.618907 11.146723  4.542629
  S     7.521724  6.582379  3.166599
  S     7.786817 10.861758  3.101136
  S    10.401194  7.014690  0.197819
  S    10.812611 11.022371  0.281954
  S     9.907903  7.704070  4.185381
  S    10.295505 11.211639  4.358721
