16  
    
  C     5.663201  5.241101  1.940625
  C     5.722947  9.055308  2.003572
  C     4.550621  4.463395  1.351955
  C     4.502364  8.520181  1.403733
  N     6.676364  5.404721  1.088112
  N     6.643070  9.438370  1.098046
  N     4.700850  4.285644  0.043248
  N     4.578643  8.339297  0.081100
  N     3.942928  4.943328  3.844843
  N     3.974078  8.768668  3.973133
  S     3.238907  4.195923  2.479200
  S     3.306475  8.078305  2.608106
  S     6.160581  4.932029 -0.384940
  S     5.977693  9.008731 -0.369296
  S     5.500870  5.584827  3.654337
  S     5.587573  9.231976  3.708027
