16  
    
  C     3.730702  4.701844  1.600064
  C     3.804445  8.455088  1.711905
  C     2.458624  4.628665  0.943851
  C     2.619098  7.809072  1.076430
  N     4.825675  4.571054  0.841530
  N     4.914693  8.471860  0.954813
  N     2.633797  4.228165 -0.311732
  N     2.832585  7.557397 -0.232209
  N     2.079350  4.817609  3.578567
  N     1.890004  8.329501  3.475467
  S     1.170099  4.552206  2.188906
  S     1.185247  7.896570  2.036691
  S     4.283090  4.280608 -0.690083
  S     4.439199  7.894529 -0.554432
  S     3.740715  4.911982  3.260907
  S     3.515483  8.844474  3.363153
