16  
    
  C     9.832217  7.674644  2.736821
  C     9.886063 11.204212  2.925477
  C     8.646688  7.359022  2.005778
  C     8.707939 10.874941  2.236731
  N    10.888139  7.851778  1.969364
  N    10.959706 11.335296  2.184350
  N     8.821809  7.173700  0.693968
  N     8.819818 10.772640  0.937326
  N     8.129703  7.284512  4.582644
  N     8.024803 10.972152  4.735444
  S     7.273338  7.187951  3.125691
  S     7.297827 10.679595  3.286887
  S    10.420593  7.589977  0.433571
  S    10.404657 11.067072  0.591930
  S     9.740120  7.769037  4.456585
  S     9.657571 11.371324  4.626751
