16  
    
  C     9.239891  6.595673  2.393670
  C     9.291141 10.525431  2.867456
  C     8.066623  6.235783  1.662451
  C     8.091565 10.415955  2.160482
  N    10.380033  6.596863  1.729323
  N    10.393853 10.323262  2.126561
  N     8.292744  6.063714  0.353222
  N     8.195317 10.071659  0.895675
  N     7.388924  6.911460  4.089670
  N     7.470199 10.845596  4.590094
  S     6.693526  6.188909  2.756976
  S     6.677295 10.747936  3.159047
  S     9.957751  6.289592  0.148779
  S     9.814346  9.919345  0.591481
  S     9.028863  7.066780  4.026565
  S     9.112974 11.037727  4.509461
