16  
    
  C     9.100573  7.075811  2.372012
  C     9.151111 10.886434  2.570008
  C     7.903962  6.717109  1.678731
  C     7.933595 10.459448  1.964449
  N    10.142664  7.254649  1.564744
  N    10.146381 11.117321  1.715052
  N     8.013187  6.627323  0.369920
  N     8.011306 10.263296  0.666789
  N     7.200213  6.819786  4.092716
  N     7.433871 10.600675  4.454760
  S     6.475731  6.503189  2.600593
  S     6.572439 10.403170  3.056771
  S     9.531046  6.985247  0.035218
  S     9.506296 10.799087  0.228045
  S     8.841135  7.053698  4.138369
  S     8.981517 11.219787  4.324609
