16  
    
  C    11.394723  8.554904  3.366626
  C    11.495323 12.420195  3.325105
  C    10.263828  7.935268  2.778304
  C    10.346840 11.729613  2.733882
  N    12.396931  8.708597  2.528273
  N    12.556950 12.623274  2.513483
  N    10.333369  7.636851  1.508565
  N    10.529820 11.423530  1.466694
  N     9.502825  8.541179  5.183749
  N     9.591898 12.202618  5.065377
  S     8.929454  7.698796  3.878789
  S     8.933442 11.574599  3.714608
  S    11.904287  8.120428  1.037956
  S    12.025517 11.956148  0.976786
  S    11.073329  9.180601  4.983714
  S    11.143621 12.699635  5.030607
