16  
    
  C     4.356967  4.991179  1.270869
  C     4.425041  8.313059  1.326837
  C     3.087401  4.693816  0.648879
  C     3.168096  7.968723  0.650822
  N     5.360298  4.939900  0.402280
  N     5.447894  8.424718  0.493013
  N     3.089316  4.551872 -0.672360
  N     3.275249  7.716788 -0.644787
  N     2.525560  4.798186  3.101596
  N     2.685764  8.172203  3.151809
  S     1.735695  4.598849  1.646113
  S     1.899099  7.737600  1.757617
  S     4.681306  4.793259 -1.165802
  S     4.843775  8.098769 -1.010370
  S     4.135116  5.163354  3.038901
  S     4.246105  8.573341  2.981506
