16  
    
  C    12.689606  8.883530  3.625572
  C    12.426117 12.776086  3.939636
  C    11.419469  8.449765  3.004007
  C    11.255750 12.234954  3.210897
  N    13.701806  8.967762  2.762146
  N    13.374968 13.169342  3.076773
  N    11.563658  8.297385  1.708935
  N    11.405960 12.059709  1.901253
  N    10.952051  8.548155  5.528370
  N    10.511949 12.490990  5.622898
  S    10.114627  8.185997  4.152109
  S     9.906395 11.751010  4.216997
  S    13.058269  8.686217  1.230048
  S    12.954525 12.590929  1.552208
  S    12.532015  9.131599  5.349140
  S    12.068398 13.141624  5.586600
