16  
    
  C     5.241102  5.389960  1.812337
  C     5.084790  8.872345  1.291123
  C     3.902316  5.057235  1.285327
  C     3.862172  8.326572  0.817613
  N     6.188764  5.347551  0.884389
  N     6.079559  8.895949  0.414946
  N     3.912770  4.568427  0.051475
  N     3.900319  8.094954 -0.496765
  N     3.605278  5.479023  3.762087
  N     3.486691  8.905402  3.257704
  S     2.649054  5.278835  2.474145
  S     2.581204  8.326050  2.008053
  S     5.411554  4.878708 -0.526451
  S     5.394430  8.446404 -1.015366
  S     5.162048  5.935287  3.464176
  S     5.122708  9.194507  3.006021
