16  
    
  C     9.073257  7.005133  2.415828
  C     9.175630 10.834143  2.552072
  C     7.858653  6.761889  1.646341
  C     7.933350 10.439230  1.906931
  N    10.097116  7.317066  1.615557
  N    10.149997 11.098462  1.694136
  N     7.962655  6.667415  0.319449
  N     8.034397 10.267404  0.563960
  N     7.175092  6.759962  4.107940
  N     7.436428 10.559484  4.408116
  S     6.483582  6.505567  2.600646
  S     6.583279 10.440835  3.018631
  S     9.535411  7.080290  0.029050
  S     9.502453 10.767252  0.147309
  S     8.799291  7.077148  4.131038
  S     9.007769 11.169541  4.268914
