16  
    
  C     4.490131  5.226966  1.610072
  C     4.515549  8.481855  1.492919
  C     3.253321  4.799672  1.025505
  C     3.281900  7.934827  0.887736
  N     5.517052  5.323864  0.763612
  N     5.553429  8.465129  0.654140
  N     3.379392  4.488144 -0.273028
  N     3.385974  7.707652 -0.420986
  N     2.784278  4.882313  3.605596
  N     2.591623  8.774787  3.230435
  S     2.003770  4.444264  2.203197
  S     1.921532  7.841409  1.989770
  S     4.912914  4.911906 -0.713099
  S     4.997137  8.043185 -0.831200
  S     4.351028  5.370081  3.391029
  S     4.261927  8.893628  3.191247
