16  
    
  C    12.323575  9.245759  3.499887
  C    12.464718 12.735066  3.513734
  C    11.218608  8.624278  2.776726
  C    11.244866 12.172059  2.974362
  N    13.310532  9.709797  2.734632
  N    13.391498 12.884297  2.584633
  N    11.498549  8.468043  1.490680
  N    11.187877 12.041652  1.642050
  N    10.581690  8.351324  5.276674
  N    10.914765 12.523110  5.480188
  S    10.005777  7.942422  3.770345
  S    10.004898 12.154245  4.165430
  S    12.922611  9.204255  1.182541
  S    12.683780 12.494403  1.118585
  S    12.022338  9.182212  5.253652
  S    12.434125 13.055047  5.159220
