16  
    
  C     4.281608  5.012351  1.132364
  C     4.398558  8.430087  1.422444
  C     2.997743  4.828649  0.469346
  C     3.264063  7.864409  0.727906
  N     5.343140  5.051573  0.332325
  N     5.428810  8.657533  0.618940
  N     3.138554  4.530541 -0.836338
  N     3.409439  7.778991 -0.587841
  N     2.730039  4.707263  3.071496
  N     2.480563  8.264618  3.106892
  S     1.741607  4.692264  1.747760
  S     1.867107  7.688451  1.691580
  S     4.782867  4.819571 -1.141448
  S     4.934228  8.320692 -0.871360
  S     4.317674  5.221773  2.794616
  S     4.147893  8.368078  3.133205
