16  
    
  C     9.781386  7.528315  2.767985
  C     9.764431 11.138514  2.902033
  C     8.600552  7.098279  2.121795
  C     8.593314 10.657358  2.239727
  N    10.806499  7.790514  1.923837
  N    10.831382 11.391465  2.108122
  N     8.747070  6.896473  0.814271
  N     8.775304 10.481000  0.941397
  N     7.909674  7.080978  4.581065
  N     7.977497 10.713710  4.726450
  S     7.238925  6.809169  3.050766
  S     7.294411 10.195609  3.271094
  S    10.250716  7.403804  0.416565
  S    10.317662 10.959112  0.597472
  S     9.535017  7.638656  4.537202
  S     9.561798 11.277536  4.627371
