16  
    
  C     6.556405  5.781526  1.990905
  C     6.634267  9.416588  1.896827
  C     5.283515  5.418613  1.421725
  C     5.456801  8.850790  1.254190
  N     7.543908  5.936317  1.109191
  N     7.599300  9.636049  1.006191
  N     5.296623  5.192416  0.104954
  N     5.515878  8.718636 -0.071332
  N     4.951302  5.754712  4.008164
  N     4.873583  8.934795  3.800246
  S     4.106579  5.382318  2.614778
  S     4.113182  8.735749  2.337027
  S     6.852404  5.504459 -0.337627
  S     7.003650  9.327476 -0.489352
  S     6.508233  6.075889  3.721236
  S     6.445815  9.671684  3.612543
