16  
    
  C     7.580102  6.552783  2.326563
  C     7.707970 10.040327  2.357902
  C     6.264132  6.197140  1.833707
  C     6.496526  9.714383  1.613341
  N     8.493944  6.634232  1.364544
  N     8.770007 10.101034  1.579270
  N     6.289986  5.762737  0.576526
  N     6.703994  9.511966  0.299758
  N     6.094923  6.421979  4.343538
  N     5.843576 10.041466  4.068396
  S     5.069712  6.111838  3.074961
  S     5.102479  9.625869  2.613440
  S     7.846052  6.047098 -0.012530
  S     8.365823  9.860385  0.058878
  S     7.725608  6.811711  4.032613
  S     7.488945 10.242092  4.043851
