16  
    
  C    12.765603  9.138732  3.414707
  C    12.802826 12.680983  3.474898
  C    11.506493  8.616284  2.881425
  C    11.617473 12.205340  2.790738
  N    13.723022  9.106938  2.504715
  N    13.806046 13.075003  2.663433
  N    11.466191  8.438660  1.597628
  N    11.807757 12.099889  1.490104
  N    11.117470  8.960131  5.421540
  N    10.875586 12.432241  5.252784
  S    10.268219  8.433797  4.012292
  S    10.231318 12.019051  3.765106
  S    13.014363  8.831285  1.025865
  S    13.313948 12.654915  1.147908
  S    12.698106  9.447562  5.108646
  S    12.410066 13.093512  5.151589
