16  
    
  C     6.776831  6.128255  2.397733
  C     7.262792  9.614573  2.162818
  C     5.673924  5.476617  1.794047
  C     5.999993  9.376116  1.549679
  N     7.602061  6.676604  1.503647
  N     8.269916  9.723575  1.311502
  N     5.746915  5.310673  0.474082
  N     6.015920  9.322773  0.231877
  N     5.318562  5.186277  4.344242
  N     5.516714  9.543328  4.043665
  S     4.569294  4.761760  2.896253
  S     4.647139  9.452008  2.593780
  S     7.094015  6.143061  0.013622
  S     7.558431  9.486427 -0.259958
  S     6.573690  6.223087  4.097006
  S     7.112289  9.812012  3.941310
