16  
    
  C    10.118511  7.732493  2.631685
  C    10.598934 11.433580  3.018483
  C     8.985385  7.022909  2.034164
  C     9.383869 11.208850  2.185079
  N    11.109996  7.963729  1.821284
  N    11.735832 11.512187  2.333561
  N     9.197487  6.709217  0.776435
  N     9.627792 11.020277  0.893901
  N     8.272829  7.714833  4.460572
  N     8.546828 11.448547  4.630395
  S     7.661096  6.890874  3.121773
  S     7.929069 11.344522  3.075867
  S    10.695687  7.381433  0.328822
  S    11.273634 11.264681  0.711796
  S     9.878167  8.123049  4.300155
  S    10.202431 11.576622  4.731290
