16  
    
  C    10.936199  7.795684  3.129372
  C    11.484322 11.865138  2.986861
  C     9.790842  7.516995  2.329296
  C    10.323166 11.211001  2.424553
  N    12.075410  7.845693  2.458044
  N    12.443463 12.123360  2.104945
  N    10.079789  7.359384  1.064432
  N    10.453248 10.823552  1.153410
  N     8.936722  7.674154  4.825092
  N     9.892587 11.470121  4.936132
  S     8.360951  7.450762  3.259620
  S     9.071967 10.893081  3.635009
  S    11.691805  7.617620  0.875611
  S    11.963647 11.374436  0.737688
  S    10.624016  7.904251  4.847810
  S    11.289707 12.314615  4.651322
