16  
    
  C    11.353259  8.771443  3.208172
  C    11.367560 12.361062  3.281171
  C    10.260937  8.019176  2.683048
  C    10.238216 11.793393  2.553406
  N    12.346548  9.079241  2.366875
  N    12.503519 12.428230  2.607077
  N    10.418428  7.636937  1.393494
  N    10.510025 11.715239  1.246616
  N     9.802385  8.395848  5.232370
  N     9.644810 11.767352  4.982919
  S     9.029583  7.758619  3.887831
  S     8.883428 11.370897  3.596192
  S    11.937642  8.243232  0.973164
  S    12.074733 12.217219  0.979761
  S    11.247565  9.111973  4.970562
  S    11.089027 12.524107  4.947673
