16  
    
  C     3.695586  4.746062  1.594163
  C     3.852163  8.352420  1.687190
  C     2.461760  4.358699  0.973246
  C     2.636254  7.881553  1.097062
  N     4.645618  5.059820  0.671191
  N     4.875011  8.441140  0.826983
  N     2.534566  4.081903 -0.322888
  N     2.651828  7.871935 -0.256266
  N     1.821693  4.323423  3.483083
  N     2.132554  8.100061  3.614219
  S     1.166546  3.792645  2.037745
  S     1.310219  7.873849  2.226174
  S     3.968760  4.612670 -0.835841
  S     4.219803  8.155576 -0.688525
  S     3.491214  4.767148  3.376940
  S     3.771522  8.462712  3.428187
