16  
    
  C     6.011350  5.638776  2.159592
  C     5.973723  9.220042  1.590317
  C     4.667090  5.576729  1.571367
  C     4.747263  8.878200  0.907403
  N     7.031713  5.481925  1.321224
  N     7.069343  9.208769  0.850477
  N     4.678648  5.384406  0.266336
  N     4.905272  8.550421 -0.379588
  N     4.251615  5.841069  4.080277
  N     4.144954  9.007510  3.432977
  S     3.297316  5.708417  2.645457
  S     3.364895  8.785372  2.011625
  S     6.284421  5.288132 -0.189255
  S     6.509845  8.795748 -0.699787
  S     5.902923  5.842550  3.923128
  S     5.789597  9.531992  3.242453
