16  
    
  C    10.441553  7.537970  2.633016
  C    10.448921 11.374029  2.654384
  C     9.135949  7.440959  2.084589
  C     9.201703 11.159887  1.983720
  N    11.421660  7.359330  1.758541
  N    11.507987 11.326755  1.872859
  N     9.139841  7.265019  0.754787
  N     9.257288 10.862913  0.693625
  N     8.796891  7.814949  4.614397
  N     8.561842 11.275194  4.498271
  S     7.839680  7.393248  3.249525
  S     7.794809 11.312955  3.056129
  S    10.727816  7.198165  0.298357
  S    10.918551 10.959847  0.377498
  S    10.450177  7.672584  4.350953
  S    10.236976 11.528040  4.406768
