16  
    
  C     9.219262  6.847262  2.825052
  C     9.667350 10.822777  2.646100
  C     8.035804  6.464866  2.107223
  C     8.556221 10.238251  2.025911
  N    10.245388  7.243705  2.065015
  N    10.592506 11.319573  1.817852
  N     8.181728  6.470091  0.778216
  N     8.630872 10.143361  0.710091
  N     7.545230  6.471538  4.692687
  N     8.049303 10.165872  4.564682
  S     6.767717  5.997439  3.262802
  S     7.324397  9.636847  3.125446
  S     9.726147  6.997459  0.528123
  S    10.065152 10.862429  0.285932
  S     9.137177  7.006706  4.514378
  S     9.564341 10.910733  4.405477
