16  
    
  C     5.312716  5.557816  1.636770
  C     5.178535  8.995094  1.356658
  C     3.975356  5.197367  1.139786
  C     3.977242  8.517560  0.793743
  N     6.300357  5.493938  0.761592
  N     6.217818  8.951710  0.531205
  N     3.981222  4.930643 -0.143525
  N     4.068080  8.229980 -0.491571
  N     3.820462  5.544271  3.714583
  N     3.453341  8.931641  3.259219
  S     2.816387  5.020652  2.469804
  S     2.709391  8.211755  1.945960
  S     5.555053  5.147966 -0.707959
  S     5.656833  8.421146 -0.920405
  S     5.385938  5.813617  3.325504
  S     5.021783  9.410789  3.033545
