16  
    
  C    10.263448  7.240890  2.682422
  C    10.350954 10.961243  2.788173
  C     8.993912  6.899259  2.023246
  C     9.089978 10.811120  2.115864
  N    11.298542  7.400941  1.868276
  N    11.365123 11.038463  1.923067
  N     9.097124  6.792249  0.688831
  N     9.149468 10.817037  0.770773
  N     8.485800  7.384903  4.563925
  N     8.540616 10.726066  4.603672
  S     7.614172  6.979942  3.198422
  S     7.717521 10.978228  3.185078
  S    10.664035  7.198931  0.319860
  S    10.742599 10.979752  0.393398
  S    10.152025  7.454068  4.354136
  S    10.196691 11.022840  4.505963
