16  
    
  C    11.854636  8.674482  3.332619
  C    11.534118 12.392930  3.153731
  C    10.599748  8.131048  2.891480
  C    10.355186 11.788629  2.511139
  N    12.793705  8.833718  2.388359
  N    12.545509 12.653980  2.336417
  N    10.594652  7.946651  1.573376
  N    10.629913 11.352752  1.298519
  N    10.377770  8.610284  5.433850
  N     9.837264 11.946231  5.078580
  S     9.414067  8.076275  4.140267
  S     9.056702 11.318520  3.705575
  S    12.130659  8.261374  1.008908
  S    12.134307 12.036522  0.864879
  S    11.875269  9.098377  4.960199
  S    11.435114 12.410477  4.832556
