16  
    
  C    11.006354  7.706287  3.174826
  C    11.349728 11.864495  2.939491
  C     9.785734  7.487650  2.323429
  C    10.264496 11.089891  2.418768
  N    12.122023  7.865364  2.482011
  N    12.389417 11.974723  2.146154
  N    10.034277  7.465380  1.031800
  N    10.401153 10.764297  1.151042
  N     9.020452  7.560158  4.745367
  N     9.829583 11.513205  4.960253
  S     8.309113  7.457743  3.267211
  S     9.044284 10.921601  3.594493
  S    11.701489  7.594209  0.890251
  S    11.863410 11.420087  0.629568
  S    10.624693  7.810628  4.865558
  S    11.295726 12.339115  4.626585
