16  
    
  C     9.295426  6.977201  2.900752
  C     9.636415 10.824021  2.649147
  C     8.136493  6.479474  2.226971
  C     8.537378 10.210716  2.002430
  N    10.308533  7.273194  2.080228
  N    10.576738 11.234003  1.806328
  N     8.180333  6.555652  0.905156
  N     8.565412 10.194669  0.668521
  N     7.568153  6.555874  4.683035
  N     8.022125 10.260087  4.486533
  S     6.855593  5.955778  3.308968
  S     7.272548  9.720363  3.109828
  S     9.774014  7.011643  0.541394
  S    10.041067 10.887378  0.279398
  S     9.153227  6.944410  4.580491
  S     9.546634 10.884438  4.358748
