16  
    
  C    10.158662  7.708662  2.612558
  C    10.579949 11.374250  2.976053
  C     8.997695  7.072149  2.048629
  C     9.380058 11.260703  2.182837
  N    11.195308  7.905957  1.783010
  N    11.733631 11.478115  2.263882
  N     9.205343  6.743366  0.775081
  N     9.593546 11.044616  0.858834
  N     8.344135  7.723950  4.442519
  N     8.523792 11.462457  4.607870
  S     7.684953  6.949699  3.138105
  S     7.942758 11.363319  3.061189
  S    10.663152  7.373193  0.329265
  S    11.263350 11.253135  0.695337
  S     9.905540  8.101180  4.287501
  S    10.187054 11.583357  4.695446
