16  
    
  C     4.441819  5.006668  1.526964
  C     4.138548  8.663312  1.654663
  C     3.165814  4.699579  0.935808
  C     3.070744  8.286557  0.806947
  N     5.469352  5.091523  0.681577
  N     5.231225  9.079213  1.026101
  N     3.199738  4.695583 -0.391344
  N     3.333322  8.355662 -0.503931
  N     2.721539  5.111452  3.464221
  N     2.182725  7.859330  3.250482
  S     1.919845  4.579283  2.138167
  S     1.636447  7.729820  1.675545
  S     4.837665  4.814300 -0.862081
  S     4.894010  8.864858 -0.643286
  S     4.357798  5.169626  3.271963
  S     3.770611  8.479664  3.367835
