16  
    
  C    10.631252  7.637704  3.093894
  C    10.648217 11.785646  3.142295
  C     9.348125  7.293058  2.459037
  C     9.414608 11.160449  2.691537
  N    11.555642  7.903434  2.178489
  N    11.469515 12.030745  2.119827
  N     9.317675  7.292189  1.135112
  N     9.341460 10.949105  1.369642
  N     8.983613  7.445309  5.001759
  N     9.232193 11.443313  5.230309
  S     8.089123  7.018778  3.651659
  S     8.281958 10.901750  3.999894
  S    10.873218  7.821404  0.676240
  S    10.701029 11.541805  0.698702
  S    10.575559  7.723709  4.814113
  S    10.611160 12.302967  4.800212
