16  
    
  C    12.276812  9.152438  3.405004
  C    12.106103 12.457400  3.514739
  C    11.069321  8.690297  2.738256
  C    10.958382 12.100873  2.782750
  N    13.367280  9.272693  2.668276
  N    13.179489 12.720058  2.777597
  N    11.255430  8.370137  1.484771
  N    11.138549 12.046435  1.460292
  N    10.499233  8.919141  5.323118
  N    10.274610 12.404205  5.198245
  S     9.756770  8.320833  3.886463
  S     9.533899 11.967329  3.843356
  S    12.856046  8.788207  1.080427
  S    12.731350 12.372461  1.210973
  S    12.094470  9.341948  5.140742
  S    11.846366 12.876522  5.104339
