16  
    
  C     4.729201  5.018077  1.994160
  C     4.727351  8.857966  1.660589
  C     3.537631  4.622119  1.268235
  C     3.470385  8.560432  1.064408
  N     5.855697  4.980101  1.275928
  N     5.661837  9.212020  0.770056
  N     3.736955  4.525616 -0.055485
  N     3.512268  8.517509 -0.263664
  N     2.903720  4.815996  3.779911
  N     3.092949  8.170930  3.626388
  S     2.130739  4.462955  2.383838
  S     2.257859  7.967894  2.190214
  S     5.398201  4.815772 -0.294703
  S     5.012534  9.008574 -0.710883
  S     4.558877  5.019703  3.672142
  S     4.637137  8.868154  3.428377
