16  
    
  C    12.526097  8.997528  3.412987
  C    12.227527 12.867280  3.611150
  C    11.371447  8.471075  2.758458
  C    11.155011 12.107674  3.042313
  N    13.572879  9.228560  2.651881
  N    13.167894 13.216284  2.737561
  N    11.505368  8.266916  1.466868
  N    11.212993 11.987426  1.718059
  N    10.771599  8.665860  5.352477
  N    10.673282 12.375145  5.595666
  S     9.964382  8.244065  3.894314
  S     9.807448 11.805260  4.208903
  S    13.108913  8.873112  1.098019
  S    12.720875 12.611593  1.290583
  S    12.457085  9.049332  5.113182
  S    12.104700 13.150736  5.320109
