16  
    
  C     5.849697  5.356204  1.742382
  C     5.970005  8.839882  2.134544
  C     4.589483  5.028347  1.156711
  C     4.745324  8.629671  1.459693
  N     6.843091  5.398450  0.873209
  N     6.999999  8.952068  1.316450
  N     4.670986  4.859630 -0.158829
  N     4.844324  8.521386  0.136475
  N     4.060265  5.389396  3.615906
  N     4.138190  8.724566  4.001494
  S     3.241754  4.952215  2.231367
  S     3.366883  8.536712  2.542484
  S     6.222749  4.994301 -0.625919
  S     6.476542  8.785919 -0.209201
  S     5.723311  5.629319  3.474792
  S     5.809501  9.088658  3.842776
