16  
    
  C     6.669749  6.062167  2.400569
  C     7.045693  9.846471  2.254278
  C     5.505419  5.432135  1.825040
  C     5.813556  9.494300  1.563655
  N     7.502586  6.550624  1.488320
  N     8.106646  9.861868  1.479714
  N     5.604213  5.223867  0.503198
  N     5.938256  9.298056  0.265461
  N     5.339509  5.321155  4.443442
  N     5.439478  9.381527  4.156452
  S     4.572687  4.703170  3.048505
  S     4.523609  9.424003  2.756340
  S     6.958397  6.066837  0.022356
  S     7.538770  9.570082 -0.090836
  S     6.711539  6.190411  4.109577
  S     6.997984  9.833961  3.946848
