16  
    
  C     6.868836  6.017714  2.351576
  C     7.251859  9.640730  2.087168
  C     5.771884  5.437342  1.624755
  C     6.026867  9.325812  1.439902
  N     7.821031  6.589276  1.593225
  N     8.285498  9.804635  1.286292
  N     5.968668  5.330342  0.307362
  N     6.109622  9.295418  0.126678
  N     4.919204  5.493841  4.083150
  N     5.473220  9.807462  3.947824
  S     4.440337  4.851859  2.637570
  S     4.628971  9.354400  2.631676
  S     7.416347  6.106915  0.048588
  S     7.692848  9.493405 -0.271173
  S     6.525187  6.158934  4.030389
  S     7.202112  9.763672  3.804194
