16  
    
  C    12.301599  9.236805  3.506385
  C    12.452367 12.726137  3.501591
  C    11.221314  8.620652  2.780239
  C    11.238313 12.221132  2.960241
  N    13.288664  9.730406  2.745034
  N    13.395898 12.891945  2.605914
  N    11.463459  8.437374  1.473562
  N    11.219961 12.020384  1.638871
  N    10.592167  8.352937  5.254035
  N    10.936802 12.535256  5.480716
  S     9.995683  7.936220  3.810919
  S     9.994357 12.167597  4.164229
  S    12.943273  9.205679  1.197147
  S    12.695297 12.509361  1.131578
  S    12.032724  9.181952  5.277641
  S    12.444926 13.038286  5.154294
