16  
    
  C    10.541197  7.251333  2.750202
  C    10.305645 11.131879  2.685947
  C     9.230279  7.329100  2.155885
  C     9.049962 10.889083  2.050481
  N    11.532419  7.139645  1.880316
  N    11.308845 11.231296  1.842224
  N     9.224474  7.238018  0.828587
  N     9.121471 10.673453  0.750074
  N     8.777344  7.405984  4.745698
  N     8.562788 11.107616  4.640748
  S     7.953736  7.703258  3.322741
  S     7.717308 10.887353  3.206091
  S    10.787655  7.227066  0.388546
  S    10.722296 10.901204  0.372286
  S    10.448854  7.365731  4.478002
  S    10.166820 11.449368  4.397618
