16  
    
  C    11.239850  8.191534  3.209661
  C    11.462480 11.615867  3.264728
  C     9.999759  7.783562  2.612653
  C    10.128675 11.419190  2.731556
  N    12.275699  8.168638  2.381927
  N    12.444722 11.712520  2.356876
  N    10.052183  7.454678  1.338945
  N    10.158881 11.317687  1.408792
  N     9.468516  8.188241  5.112796
  N     9.720489 11.844149  5.138644
  S     8.706136  7.628458  3.779241
  S     8.793581 11.662662  3.807382
  S    11.627615  7.695843  0.905075
  S    11.742955 11.476397  0.908795
  S    11.138300  8.462628  4.932866
  S    11.338700 11.960522  4.994436
