16  
    
  C    11.889418  8.568068  3.218712
  C    11.405178 12.301419  3.454266
  C    10.591583  8.275959  2.597329
  C    10.264203 11.693821  2.833179
  N    12.830164  8.821500  2.314203
  N    12.475212 12.413230  2.628966
  N    10.625743  8.284961  1.268450
  N    10.362384 11.542520  1.514676
  N    10.218516  7.974967  5.122619
  N     9.662064 11.614160  5.199275
  S     9.337081  7.890383  3.760326
  S     8.954001 11.127970  3.829272
  S    12.170785  8.580709  0.794830
  S    11.905737 11.996744  1.148379
  S    11.842418  8.467105  4.960700
  S    11.116367 12.271237  5.184269
