16  
    
  C     4.922327  4.921287  1.795702
  C     4.692788  8.840371  1.731229
  C     3.634104  4.559998  1.273130
  C     3.383771  8.535875  1.189181
  N     5.879311  4.899734  0.847693
  N     5.572096  9.266187  0.836553
  N     3.552825  4.469509 -0.058250
  N     3.341630  8.464998 -0.137259
  N     3.239603  4.484203  3.748184
  N     3.178056  8.474977  3.774737
  S     2.367952  4.449622  2.348597
  S     2.190977  8.170921  2.396571
  S     5.072388  4.732516 -0.586680
  S     4.892216  8.961189 -0.631280
  S     4.820747  4.901674  3.581794
  S     4.799166  8.848575  3.462509
