16  
    
  C     5.063528  5.119441  1.838981
  C     5.112656  8.598429  1.913341
  C     3.720432  4.876243  1.285553
  C     3.878308  8.375792  1.250282
  N     6.063894  5.070587  0.973467
  N     6.189929  8.652981  1.117230
  N     3.775460  4.854764 -0.061927
  N     3.976572  7.988617 -0.016017
  N     3.531556  4.700691  3.856769
  N     3.257494  8.731088  3.715002
  S     2.475377  4.838662  2.563096
  S     2.488010  8.426152  2.252514
  S     5.345244  5.047888 -0.516289
  S     5.588662  8.176912 -0.389878
  S     5.175641  5.024180  3.535756
  S     4.923624  9.025557  3.568630
