16  
    
  C     5.152596  5.166811  1.989286
  C     5.175209  8.531391  1.970753
  C     3.909235  4.920061  1.345600
  C     3.952126  8.327395  1.154091
  N     6.163193  5.179838  1.112921
  N     6.296471  8.594977  1.250870
  N     3.891435  4.922353  0.009277
  N     4.188439  8.064714 -0.128516
  N     3.325479  5.058118  3.925609
  N     3.181730  8.939337  3.571039
  S     2.583512  4.892511  2.423131
  S     2.480831  8.450794  2.119125
  S     5.476206  4.901372 -0.388022
  S     5.866516  8.260277 -0.353380
  S     5.014205  5.136550  3.753402
  S     4.864852  8.827044  3.651921
