16  
    
  C     4.315378  5.022168  1.299546
  C     4.418582  8.290580  1.329008
  C     3.091881  4.635913  0.639879
  C     3.134811  8.023372  0.652183
  N     5.339453  4.919443  0.453591
  N     5.446417  8.434094  0.517612
  N     3.113650  4.525147 -0.668076
  N     3.242090  7.735276 -0.635903
  N     2.522428  4.836330  3.111152
  N     2.676818  8.171150  3.136729
  S     1.727131  4.590032  1.681129
  S     1.891024  7.738676  1.765974
  S     4.678534  4.804679 -1.119795
  S     4.823269  8.066393 -1.017471
  S     4.135541  5.124064  3.022722
  S     4.254146  8.601063  2.970809
