16  
    
  C    11.026784  8.373181  2.900990
  C    10.813991 11.883862  3.033855
  C     9.840318  7.681527  2.344287
  C     9.646884 11.380600  2.417561
  N    12.026948  8.561968  2.061441
  N    11.798639 12.182447  2.207509
  N    10.013324  7.326330  1.083810
  N     9.750260 11.198012  1.123957
  N     9.509089  7.930000  4.871956
  N     9.072728 11.482377  4.903433
  S     8.679705  7.336562  3.579405
  S     8.360825 10.939514  3.488635
  S    11.466608  7.921463  0.606406
  S    11.310655 11.585466  0.696498
  S    10.980175  8.543913  4.657187
  S    10.655184 11.961704  4.745498
