16  
    
  C    11.841280  8.714758  3.330496
  C    11.538045 12.424690  3.150163
  C    10.612442  8.158304  2.875071
  C    10.355425 11.784745  2.539036
  N    12.783134  8.833457  2.410530
  N    12.556996 12.662869  2.327770
  N    10.579418  7.954567  1.567353
  N    10.628506 11.322090  1.318604
  N    10.380077  8.601804  5.430164
  N     9.846639 11.909950  5.015289
  S     9.411440  8.103206  4.137375
  S     9.059818 11.312864  3.703320
  S    12.119391  8.251618  0.993669
  S    12.131988 12.045461  0.875537
  S    11.867127  9.104222  4.982078
  S    11.392124 12.427608  4.840693
