16  
    
  C    10.506092  7.269856  2.817358
  C    10.238350 11.038904  2.793116
  C     9.242999  7.488185  2.186249
  C     8.995124 10.862313  2.176952
  N    11.549231  7.037617  2.004374
  N    11.294222 11.161478  1.979831
  N     9.258707  7.468350  0.866450
  N     9.050993 10.715012  0.850787
  N     8.693633  7.407714  4.686757
  N     8.473646 11.033002  4.662408
  S     7.876266  7.372393  3.244074
  S     7.711343 10.638464  3.263749
  S    10.848365  7.128021  0.442545
  S    10.639365 10.894719  0.409407
  S    10.319118  7.226363  4.558797
  S    10.142649 11.177930  4.527665
