16  
    
  C     6.564067  5.865666  1.908311
  C     6.589069  9.615906  1.867629
  C     5.297360  5.481207  1.375744
  C     5.337330  9.154808  1.281259
  N     7.557881  5.836061  1.029288
  N     7.576569  9.676539  0.973905
  N     5.304518  5.272081  0.065106
  N     5.441659  8.862665 -0.004058
  N     4.983253  5.762693  3.929988
  N     5.004746  9.164161  3.900217
  S     4.080610  5.442473  2.603897
  S     4.086788  8.909065  2.473756
  S     6.865778  5.473351 -0.428675
  S     7.015809  9.259625 -0.504574
  S     6.580675  5.998745  3.609791
  S     6.558770  9.702010  3.639826
