16  
    
  C     9.790714  7.613880  2.632652
  C     9.800738 11.261184  2.905720
  C     8.577374  7.172177  2.031972
  C     8.738892 10.612189  2.279947
  N    10.839846  7.842178  1.860267
  N    10.873388 11.513243  2.143739
  N     8.700322  7.051164  0.719585
  N     8.882645 10.450905  0.954745
  N     8.117599  7.327370  4.573038
  N     8.078847 10.634630  4.745879
  S     7.259660  7.044916  3.174350
  S     7.362118 10.304101  3.305578
  S    10.299044  7.451839  0.315866
  S    10.447648 11.030612  0.631192
  S     9.699465  7.672118  4.389484
  S     9.537460 11.398154  4.691139
