16  
    
  C     9.295913  6.611017  2.547563
  C     9.628914 10.614660  2.794992
  C     8.104135  6.304554  1.811499
  C     8.398105 10.245846  2.216427
  N    10.300201  6.867372  1.710224
  N    10.600577 10.823078  1.928205
  N     8.159934  6.237821  0.494379
  N     8.430383 10.043856  0.918585
  N     7.380266  6.382074  4.265949
  N     8.000871 10.470259  4.756813
  S     6.727492  6.020913  2.796590
  S     7.113396  9.991720  3.422773
  S     9.683104  6.701716  0.153133
  S     9.926993 10.413463  0.434741
  S     9.020579  6.813413  4.272968
  S     9.600901 10.937738  4.489423
