16  
    
  C     6.541598  5.843015  2.078718
  C     6.156274  9.224874  1.860138
  C     5.379959  5.252049  1.419214
  C     4.929123  8.809203  1.164186
  N     7.585977  5.978790  1.259862
  N     7.234338  9.430201  1.076389
  N     5.459823  5.089814  0.099132
  N     5.082651  8.668951 -0.147143
  N     4.622746  5.731057  3.864560
  N     4.361266  8.977956  3.658291
  S     4.028776  5.147039  2.466066
  S     3.609297  8.531187  2.244385
  S     7.025467  5.564234 -0.257079
  S     6.666920  8.955755 -0.476690
  S     6.257856  6.058946  3.777560
  S     5.920373  9.325168  3.594142
