16  
    
  C     5.109179  4.979571  1.664919
  C     4.940262  8.707762  1.773877
  C     3.709982  4.730279  1.267490
  C     3.650302  8.413113  1.269901
  N     5.946119  4.969644  0.616487
  N     5.933530  8.778905  0.881235
  N     3.529363  4.769513 -0.044799
  N     3.590867  8.090837 -0.028831
  N     3.595197  4.813571  3.825060
  N     3.358935  8.693102  3.843809
  S     2.514127  4.522239  2.492030
  S     2.423362  8.330882  2.509356
  S     5.005448  4.926218 -0.742913
  S     5.196361  8.370804 -0.557122
  S     5.225875  4.786115  3.436092
  S     4.926586  9.063899  3.468814
