16  
    
  C     5.391409  5.485489  1.635910
  C     5.251093  8.986268  1.500580
  C     4.071408  5.198197  1.063529
  C     4.109259  8.417377  0.858111
  N     6.342908  5.676126  0.724771
  N     6.332544  9.011595  0.718896
  N     4.101059  5.013038 -0.266283
  N     4.260879  8.165075 -0.434928
  N     3.794190  5.473145  3.654821
  N     3.402934  8.809920  3.285774
  S     2.916278  4.981708  2.323142
  S     2.711171  8.266614  1.894739
  S     5.642111  5.318351 -0.739087
  S     5.800761  8.523750 -0.778879
  S     5.377052  5.697564  3.370033
  S     4.989691  9.385033  3.181179
