16  
    
  C     6.868402  5.998842  1.592984
  C     7.264089  9.923494  2.460702
  C     5.812129  5.117030  1.135436
  C     6.021253  9.526154  1.905234
  N     7.849239  6.135432  0.726572
  N     8.300981  9.890187  1.632445
  N     5.938857  4.680159 -0.123044
  N     6.081814  9.194343  0.633749
  N     5.185001  5.838728  3.554761
  N     5.583745  9.857880  4.486911
  S     4.484477  4.911661  2.245505
  S     4.697701  9.531290  3.039407
  S     7.389561  5.315473 -0.670073
  S     7.585130  9.399131  0.122074
  S     6.735063  6.421944  3.320530
  S     7.183596 10.295954  4.215566
