16  
    
  C    12.354221  9.261400  3.500303
  C    12.506400 12.652312  3.441368
  C    11.336764  8.590821  2.786841
  C    11.234161 12.191606  2.991386
  N    13.390728  9.588272  2.724369
  N    13.399964 12.904760  2.474430
  N    11.450437  8.528569  1.461955
  N    11.124171 12.071841  1.669378
  N    10.570133  8.360197  5.222084
  N    10.839246 12.550243  5.534853
  S     9.988623  7.954584  3.664984
  S     9.977864 12.038294  4.175047
  S    12.926269  9.235834  1.135373
  S    12.651033 12.449994  1.067916
  S    12.023291  9.209046  5.180434
  S    12.404641 13.109807  5.216808
