16  
    
  C    10.780326  8.259066  2.918538
  C    10.832802 11.987579  3.016145
  C     9.589161  7.825958  2.274749
  C     9.619847 11.545590  2.341811
  N    11.819245  8.497449  2.141841
  N    11.950083 11.987844  2.294669
  N     9.681812  7.670355  0.961580
  N     9.801245 11.236957  1.078713
  N     8.985695  8.124941  4.828887
  N     8.880448 11.829052  4.754476
  S     8.232656  7.668295  3.393315
  S     8.246292 11.175986  3.369491
  S    11.305927  7.993959  0.584550
  S    11.478004 11.512184  0.765491
  S    10.628826  8.358681  4.625486
  S    10.479487 12.147226  4.742780
