16  
    
  C     9.838643  7.381083  2.537803
  C    10.414347 11.224417  2.631280
  C     8.646214  6.749650  1.964567
  C     9.141909 10.894308  1.964542
  N    10.799988  7.571465  1.627188
  N    11.410609 11.402585  1.752631
  N     8.677353  6.551842  0.638971
  N     9.213072 10.728163  0.635483
  N     8.177516  7.225845  4.497439
  N     8.663580 11.061639  4.509569
  S     7.396012  6.558349  3.171916
  S     7.823125 10.908054  3.055162
  S    10.219911  7.072400  0.173476
  S    10.756135 11.119691  0.181061
  S     9.664698  7.906053  4.142919
  S    10.277764 11.458533  4.310659
