16  
    
  C    10.275363  7.664750  3.015885
  C    10.547156 11.735362  2.991627
  C     9.022250  7.323649  2.384211
  C     9.287231 11.123706  2.605709
  N    11.256026  7.977983  2.201696
  N    11.438191 11.989890  2.039034
  N     9.048772  7.335225  1.084285
  N     9.350052 10.759157  1.335509
  N     8.587719  7.160478  4.853153
  N     9.152787 11.480306  5.157048
  S     7.777434  6.905907  3.463756
  S     8.245396 10.842708  3.953265
  S    10.689956  7.641684  0.671025
  S    10.726143 11.330796  0.664879
  S    10.150397  7.566092  4.772782
  S    10.641106 12.089606  4.683879
