16  
    
  C    11.944288  8.604909  3.250347
  C    11.970235 12.081238  3.168113
  C    10.674495  8.307358  2.680991
  C    10.656075 11.820123  2.561706
  N    12.983514  8.591850  2.404195
  N    12.996973 12.202509  2.361168
  N    10.672881  8.203693  1.343690
  N    10.772644 11.818377  1.250530
  N    10.411937  8.458693  5.206605
  N    10.381925 11.948657  5.128574
  S     9.486131  8.141938  3.964519
  S     9.406567 11.544345  3.803128
  S    12.272486  8.482738  0.885936
  S    12.417334 11.892205  0.839615
  S    12.040133  8.677968  4.968736
  S    11.945072 12.386645  4.907013
