16  
    
  C     7.653257  6.217914  2.235596
  C     7.760212 10.131461  2.447137
  C     6.366982  5.934833  1.677810
  C     6.648479  9.527736  1.815814
  N     8.623123  6.433118  1.325733
  N     8.758368 10.450699  1.633583
  N     6.414573  5.775080  0.356355
  N     6.770827  9.309632  0.487099
  N     5.946164  6.227681  4.155198
  N     6.086451  9.499981  4.295877
  S     5.151419  5.612277  2.899126
  S     5.289260  9.224190  2.905506
  S     7.906727  6.152703 -0.150905
  S     8.324335  9.922643  0.126133
  S     7.566199  6.431693  3.950477
  S     7.580360 10.232495  4.161842
