16  
    
  C    11.027181  8.199009  2.930080
  C    10.935294 11.525413  2.894572
  C     9.931186  7.422779  2.532172
  C     9.681214 11.113411  2.318928
  N    11.881676  8.490950  1.978053
  N    11.913558 11.824379  2.044386
  N     9.936402  7.121172  1.245079
  N     9.738911 11.158455  0.999934
  N     9.553961  7.926009  5.091446
  N     9.114860 11.339001  4.796295
  S     8.762904  7.105852  3.783676
  S     8.346906 10.882189  3.405576
  S    11.246192  7.889074  0.626124
  S    11.198092 11.603393  0.534762
  S    10.953538  8.672708  4.589259
  S    10.732727 11.724244  4.614049
