16  
    
  C    12.351116  9.113219  3.729407
  C    12.601592 12.805773  3.574083
  C    11.294304  8.374874  3.070824
  C    11.335154 12.546851  2.945304
  N    13.303737  9.456297  2.884774
  N    13.560351 12.984463  2.665398
  N    11.396797  8.307188  1.760479
  N    11.307973 12.323674  1.628385
  N    10.622441  8.465622  5.530689
  N    10.800124 12.694931  5.456636
  S     9.959353  7.973217  4.076050
  S    10.070808 12.229960  4.050355
  S    12.809882  9.046189  1.328645
  S    12.894128 12.639767  1.186614
  S    12.053148  9.245749  5.492620
  S    12.479690 12.877589  5.279728
