16  
    
  C     6.684348  5.944049  2.311801
  C     6.907023  9.699356  2.353480
  C     5.523858  5.246129  1.799043
  C     5.667967  9.321660  1.718257
  N     7.599775  6.251705  1.395430
  N     7.867987  9.928343  1.453302
  N     5.423475  5.181514  0.467815
  N     5.681272  9.178477  0.400825
  N     5.162477  5.509431  4.337003
  N     5.169676  9.745785  4.214862
  S     4.380526  4.997705  3.020520
  S     4.373133  9.128635  2.869221
  S     6.825734  5.888427 -0.030373
  S     7.180957  9.718942 -0.026597
  S     6.752206  6.023368  4.068395
  S     6.759132  9.932471  4.088768
