16  
    
  C     5.494779  5.487617  1.656554
  C     5.288833  8.907804  1.603471
  C     4.235820  5.065533  1.082728
  C     4.167416  8.385932  0.918580
  N     6.403904  5.756049  0.736861
  N     6.354464  9.132114  0.835395
  N     4.177830  5.046310 -0.223071
  N     4.343575  8.135265 -0.357115
  N     3.693592  5.277408  3.557702
  N     3.389192  8.751135  3.368359
  S     2.869953  5.016225  2.175637
  S     2.723593  8.341556  1.898293
  S     5.715077  5.409625 -0.778072
  S     5.938242  8.632619 -0.702897
  S     5.359674  5.681965  3.425566
  S     4.931388  9.257510  3.265311
