16  
    
  C     6.897083  5.976374  2.304519
  C     7.285481  9.837396  2.184063
  C     5.790114  5.535607  1.442115
  C     6.007874  9.498274  1.549538
  N     8.033982  6.288425  1.638351
  N     8.337853  9.855668  1.364674
  N     6.165507  5.279749  0.182893
  N     6.112967  9.322562  0.260614
  N     4.782692  5.625059  3.838462
  N     5.448705  9.418661  4.027530
  S     4.325093  5.046014  2.293251
  S     4.659346  9.368466  2.619700
  S     7.730814  5.811666  0.051839
  S     7.672973  9.575600 -0.176523
  S     6.434671  6.126506  4.011368
  S     7.103412  9.922117  3.941511
