16  
    
  C     9.178444  6.763100  2.568981
  C     9.645199 10.766111  2.776873
  C     8.004423  6.371028  1.876266
  C     8.493696 10.181273  2.218163
  N    10.212325  7.050139  1.786877
  N    10.615833 11.001548  1.885844
  N     8.137315  6.286694  0.532678
  N     8.476737 10.048720  0.876317
  N     7.342130  6.508813  4.378520
  N     8.081115 10.318525  4.798841
  S     6.646469  5.971162  2.995970
  S     7.278730  9.793731  3.428154
  S     9.750358  6.749967  0.227964
  S     9.991394 10.610010  0.377315
  S     9.003933  6.771468  4.256411
  S     9.590918 10.934220  4.501983
