16  
    
  C     4.474042  5.175613  1.648438
  C     4.254077  8.662406  1.491118
  C     3.296247  4.672659  0.965801
  C     3.047761  8.184977  0.876861
  N     5.538812  5.148810  0.850856
  N     5.263612  8.846057  0.637679
  N     3.449860  4.446854 -0.359096
  N     3.179949  7.876128 -0.422111
  N     2.705547  5.092392  3.537619
  N     2.536143  8.352495  3.482866
  S     1.908626  4.643874  2.156350
  S     1.784888  7.874061  2.020234
  S     5.048716  4.810517 -0.675016
  S     4.767418  8.264773 -0.808792
  S     4.334963  5.390928  3.386665
  S     4.093500  8.837543  3.251416
