16  
    
  C    12.266124  9.029610  3.784416
  C    12.587909 12.787898  3.566241
  C    11.089024  8.452864  3.137976
  C    11.366916 12.398985  2.887046
  N    13.325085  9.223545  2.977559
  N    13.627050 12.860705  2.746921
  N    11.266101  8.158650  1.836423
  N    11.449783 12.418852  1.566364
  N    10.555134  8.815735  5.731319
  N    10.893528 12.302251  5.439288
  S     9.856258  8.101056  4.338506
  S    10.042457 12.284854  4.011835
  S    12.855785  8.668984  1.494690
  S    13.007396 12.686278  1.189450
  S    12.247883  9.244891  5.477588
  S    12.411453 12.925654  5.249803
