16  
    
  C    12.366912  9.011682  3.422116
  C    12.319362 12.862850  3.434746
  C    11.287429  8.514134  2.600527
  C    11.094981 12.225386  2.962416
  N    13.385991  9.446627  2.715753
  N    13.318579 12.880024  2.557598
  N    11.543962  8.610278  1.298254
  N    11.070834 12.017594  1.650591
  N    10.585812  8.445763  5.212174
  N    10.739440 12.694782  5.444400
  S     9.964040  8.021823  3.671203
  S    10.017428 11.849431  4.241178
  S    13.049621  9.230371  1.103386
  S    12.626594 12.478373  1.127195
  S    12.077708  9.216999  5.088064
  S    12.358426 13.043971  5.128750
