16  
    
  C    11.399829  8.681366  3.321482
  C    11.507297 12.333140  3.348009
  C    10.212460  7.973344  2.763339
  C    10.415740 11.689272  2.679780
  N    12.453680  8.794325  2.492887
  N    12.498089 12.610288  2.528434
  N    10.382173  7.642708  1.489343
  N    10.533676 11.568913  1.369967
  N     9.638146  8.512807  5.170303
  N     9.578636 11.960732  5.129014
  S     8.917130  7.678429  3.895873
  S     8.960130 11.544358  3.635483
  S    11.872846  8.159972  1.043696
  S    12.060576 12.029489  0.978151
  S    11.104496  9.198070  4.961885
  S    11.083264 12.679641  4.995596
