16  
    
  C    10.815944  8.421330  3.284823
  C    10.728893 11.888812  3.190933
  C     9.644337  7.757385  2.687706
  C     9.487010 11.527206  2.571153
  N    11.756591  8.673672  2.409478
  N    11.800803 12.029629  2.423245
  N     9.710395  7.506727  1.407551
  N     9.600135 11.243881  1.281641
  N     9.047804  8.179236  5.077686
  N     8.913627 11.629892  5.114990
  S     8.341905  7.495113  3.759615
  S     8.225869 11.046962  3.717181
  S    11.249550  7.948731  0.945103
  S    11.262463 11.628135  0.901522
  S    10.540640  8.718871  4.966884
  S    10.529102 12.067559  4.912795
