16  
    
  C     6.892120  5.873713  2.175795
  C     7.214300  9.890437  2.327703
  C     5.862048  5.423292  1.260790
  C     5.992541  9.482274  1.691759
  N     8.078528  5.878213  1.599568
  N     8.244295  9.994554  1.508807
  N     6.259081  5.111640  0.031920
  N     6.080493  9.335085  0.376222
  N     4.730152  5.663843  3.630250
  N     5.515431  9.557649  4.273065
  S     4.268121  5.289579  1.992297
  S     4.646423  9.340241  2.766840
  S     7.886768  5.433200 -0.004940
  S     7.695342  9.762512 -0.002723
  S     6.326927  6.159764  3.831376
  S     7.046198 10.036657  4.056422
