16  
    
  C    12.251569  9.256166  3.552886
  C    12.451014 12.711702  3.454766
  C    11.232943  8.538738  2.781489
  C    11.157523 12.324589  2.933293
  N    13.218121  9.726949  2.787689
  N    13.440102 12.932925  2.590366
  N    11.418488  8.412841  1.465705
  N    11.273042 11.991003  1.651273
  N    10.639552  8.377033  5.279851
  N    10.917614 12.570466  5.498228
  S     9.957497  7.918588  3.878933
  S     9.962528 12.186848  4.165099
  S    12.979980  9.204705  1.230985
  S    12.754281 12.546820  1.152054
  S    12.065837  9.184633  5.308392
  S    12.490405 12.999633  5.167092
