16  
    
  C     4.733666  5.009616  1.984399
  C     4.723651  8.866099  1.661177
  C     3.531906  4.615499  1.263094
  C     3.468310  8.584315  1.075476
  N     5.848535  4.985581  1.251303
  N     5.663159  9.220563  0.771912
  N     3.737547  4.535796 -0.071497
  N     3.485749  8.515031 -0.252905
  N     2.932403  4.812785  3.773728
  N     3.101926  8.180439  3.641082
  S     2.123377  4.449476  2.402826
  S     2.257386  7.980544  2.210737
  S     5.398779  4.804245 -0.304606
  S     5.005054  9.014126 -0.707976
  S     4.579204  5.009071  3.660222
  S     4.632778  8.862546  3.432127
