16  
    
  C    12.713282  8.997011  3.822358
  C    12.800763 12.401737  3.747095
  C    11.473054  8.491440  3.248902
  C    11.540993 12.110263  3.066829
  N    13.705192  9.180227  2.934818
  N    13.786794 12.828961  2.940609
  N    11.505597  8.441953  1.917605
  N    11.667773 12.112309  1.742790
  N    11.190935  8.428532  5.850610
  N    10.948413 12.312138  5.534150
  S    10.299139  8.119139  4.420243
  S    10.179646 11.848648  4.109086
  S    13.036736  8.969750  1.380728
  S    13.258991 12.563888  1.435062
  S    12.655493  9.247914  5.553406
  S    12.568795 12.702900  5.456247
