16  
    
  C     8.278319  6.565646  2.304514
  C     8.082839 10.103970  2.490085
  C     7.028167  6.082024  1.691899
  C     6.938078  9.448725  1.874512
  N     9.278420  6.635960  1.443192
  N     9.015486 10.420871  1.590090
  N     7.095850  5.742120  0.430335
  N     7.055283  9.173626  0.577602
  N     6.462019  6.392274  4.190760
  N     6.253854  9.912406  4.293240
  S     5.718895  5.972219  2.712633
  S     5.585674  9.355621  2.869933
  S     8.683466  6.044482 -0.008934
  S     8.570261  9.828274  0.132590
  S     8.014148  6.879316  4.000433
  S     7.857360 10.304400  4.196023
