16  
    
  C     9.224506  6.697315  2.367775
  C     9.516534 10.496165  2.792979
  C     8.027469  6.349643  1.665142
  C     8.243714 10.266701  2.182730
  N    10.313079  6.966572  1.642446
  N    10.555631 10.549614  1.955273
  N     8.270468  6.182670  0.369273
  N     8.339368  9.991500  0.892411
  N     7.443621  6.460519  4.224156
  N     7.805012 10.680664  4.721988
  S     6.656635  6.088471  2.807241
  S     6.932551 10.404647  3.324497
  S     9.912996  6.524360  0.078361
  S     9.925855 10.148983  0.436350
  S     9.100526  6.735920  4.114504
  S     9.448551 10.926034  4.515093
