16  
    
  C     3.749703  4.716316  1.572582
  C     3.773374  8.399493  1.700279
  C     2.452540  4.575758  0.951117
  C     2.649089  7.845334  1.055310
  N     4.816039  4.613103  0.812918
  N     4.846098  8.520946  0.946073
  N     2.612307  4.388201 -0.370794
  N     2.815199  7.491173 -0.193581
  N     2.098539  4.818033  3.499652
  N     1.951227  8.379647  3.488135
  S     1.106022  4.499285  2.120456
  S     1.186847  7.907572  2.036575
  S     4.198325  4.337459 -0.682829
  S     4.386577  7.861213 -0.528958
  S     3.717823  4.907088  3.262704
  S     3.549492  8.832309  3.375358
