16  
    
  C    10.996661  7.716719  3.184902
  C    11.356858 11.874224  2.945532
  C     9.789697  7.485793  2.322139
  C    10.266907 11.101169  2.421126
  N    12.117739  7.870893  2.498750
  N    12.387672 11.981963  2.143827
  N    10.032282  7.448679  1.011182
  N    10.398443 10.760459  1.154533
  N     9.023930  7.576762  4.766636
  N     9.840774 11.499243  4.975089
  S     8.315879  7.460813  3.256400
  S     9.057261 10.919701  3.593438
  S    11.700965  7.594338  0.886628
  S    11.885352 11.420738  0.649918
  S    10.618989  7.824368  4.862411
  S    11.303012 12.341286  4.627047
