16  
    
  C     4.570874  5.077686  2.017577
  C     4.720468  8.733274  1.483094
  C     3.392042  4.806262  1.215642
  C     3.581887  8.174863  0.829888
  N     5.749242  5.165953  1.382979
  N     5.728431  9.022270  0.681464
  N     3.748500  4.541222 -0.035916
  N     3.664834  8.127782 -0.491309
  N     2.665488  4.975520  3.748070
  N     2.945185  8.362948  3.293497
  S     2.012003  4.509131  2.317855
  S     2.213891  7.841872  1.916922
  S     5.398144  4.900339 -0.178451
  S     5.232066  8.703156 -0.875708
  S     4.328337  5.132747  3.726697
  S     4.541610  8.784071  3.261719
