16  
    
  C     8.285211  6.699993  2.247823
  C     8.139405 10.115715  2.581502
  C     7.107192  6.084239  1.694565
  C     7.064477  9.409831  1.915664
  N     9.379007  6.654856  1.474444
  N     9.199480 10.403878  1.805601
  N     7.247370  5.769558  0.396781
  N     7.257605  9.139576  0.639360
  N     6.582865  6.446466  4.176148
  N     6.240191  9.850564  4.308525
  S     5.731028  6.041338  2.798567
  S     5.621083  9.208248  2.910418
  S     8.814560  6.078581 -0.016966
  S     8.700894  9.871317  0.235892
  S     8.138756  7.071416  3.973409
  S     7.793269 10.405722  4.299602
