16  
    
  C     9.929318  7.510240  2.490399
  C    10.397379 11.052297  2.641499
  C     8.741901  6.998311  1.930422
  C     9.133483 11.064306  1.956643
  N    10.942691  7.585227  1.637750
  N    11.444233 11.088797  1.852367
  N     8.824573  6.694921  0.647068
  N     9.180180 10.998692  0.637446
  N     8.314569  7.216332  4.496185
  N     8.629285 11.150445  4.543645
  S     7.507029  6.571039  3.176912
  S     7.782623 10.860668  3.099426
  S    10.396071  7.021139  0.193185
  S    10.812666 11.031092  0.279108
  S     9.891326  7.723688  4.169538
  S    10.293584 11.231189  4.357827
