16  
    
  C    12.071496  8.554696  3.281436
  C    12.136253 12.126316  3.220368
  C    10.791678  8.309884  2.752237
  C    10.897701 11.704652  2.626870
  N    12.996970  8.717849  2.331084
  N    13.150377 12.276667  2.364749
  N    10.749201  8.239482  1.415046
  N    10.940081 11.388490  1.341674
  N    10.369286  8.462694  5.321740
  N    10.267444 11.957596  5.075912
  S     9.491498  8.082885  3.901087
  S     9.572179 11.567051  3.625203
  S    12.294250  8.341306  0.895697
  S    12.456598 11.947114  0.890416
  S    12.005224  8.693915  5.030371
  S    11.871963 12.382028  4.974736
