16  
    
  C     9.775147  7.636214  2.662573
  C     9.796480 11.253881  2.929390
  C     8.573680  7.150186  2.037006
  C     8.694118 10.617719  2.272164
  N    10.848194  7.829554  1.882193
  N    10.877436 11.496208  2.148036
  N     8.703685  7.002713  0.709341
  N     8.868928 10.452823  0.959794
  N     8.100368  7.295176  4.561167
  N     8.063924 10.638335  4.737328
  S     7.257327  7.013398  3.160415
  S     7.356469 10.282936  3.300849
  S    10.290036  7.444506  0.314186
  S    10.429070 11.015311  0.621567
  S     9.668072  7.662834  4.430726
  S     9.540261 11.377226  4.676250
