16  
    
  C     5.914111  4.897290  1.831168
  C     5.773606  9.228202  1.992331
  C     4.760537  4.467944  1.088472
  C     4.624488  8.669173  1.376676
  N     7.030897  5.093081  1.154112
  N     6.775275  9.495313  1.156692
  N     4.928643  4.442672 -0.221855
  N     4.722623  8.430496  0.062161
  N     3.881471  4.888810  3.473736
  N     4.106351  8.931800  3.942111
  S     3.332970  4.239998  2.007750
  S     3.370590  8.295022  2.531768
  S     6.562949  4.735327 -0.442824
  S     6.245560  8.949818 -0.349633
  S     5.543755  5.125163  3.517226
  S     5.645031  9.604348  3.699850
