16  
    
  C    12.797134  9.198454  3.451328
  C    12.712481 12.923496  3.657983
  C    11.632397  8.654462  2.795148
  C    11.536662 12.388448  2.965138
  N    13.812246  9.523523  2.629282
  N    13.729774 13.121479  2.842759
  N    11.839599  8.415200  1.477763
  N    11.718482 12.072391  1.673076
  N    10.923883  9.324245  5.288429
  N    10.913044 12.635148  5.419174
  S    10.182616  8.635223  3.874947
  S    10.105717 12.207255  4.036749
  S    13.346138  8.985375  1.087348
  S    13.266203 12.618031  1.283838
  S    12.589669  9.522309  5.123258
  S    12.508541 13.225309  5.369092
