16  
    
  C     9.199209  6.838675  2.365708
  C     9.177178 10.863083  3.009031
  C     8.000619  6.202734  1.809885
  C     7.914177 10.417269  2.401311
  N    10.284053  6.752135  1.627317
  N    10.183222 10.816666  2.168150
  N     8.195890  5.726934  0.589071
  N     7.999828 10.003813  1.162377
  N     7.439126  6.966114  4.177651
  N     7.391276 10.994535  4.797388
  S     6.607315  6.336859  2.853030
  S     6.564397 10.597495  3.433843
  S     9.812362  6.058208  0.207205
  S     9.601691 10.280697  0.707835
  S     9.078583  7.221835  3.972039
  S     9.034396 11.123767  4.677640
