16  
    
  C     7.722912  6.540938  2.425373
  C     7.794089 10.155674  2.202200
  C     6.410894  6.177356  1.880794
  C     6.529697  9.904444  1.511411
  N     8.692962  6.625132  1.494419
  N     8.877364 10.091660  1.387933
  N     6.453974  5.751205  0.602906
  N     6.688951  9.599910  0.233229
  N     5.958607  6.838227  4.286254
  N     5.890901  9.965903  3.951449
  S     5.080774  6.158481  2.966998
  S     5.153485  9.929866  2.474069
  S     8.034500  6.105910  0.032330
  S     8.281751  9.748493 -0.154656
  S     7.555117  7.055976  4.131857
  S     7.527941 10.246820  3.957983
