16  
    
  C    12.533719  9.012529  3.437381
  C    12.226416 12.847396  3.579792
  C    11.349460  8.532041  2.745306
  C    11.124375 12.056476  3.053564
  N    13.549330  9.283480  2.644857
  N    13.189102 13.194642  2.704052
  N    11.560451  8.284498  1.459844
  N    11.186245 11.951340  1.731818
  N    10.762776  8.621339  5.279146
  N    10.706819 12.336142  5.559668
  S     9.976135  8.253402  3.887928
  S     9.831997 11.845609  4.172383
  S    13.101650  8.877591  1.083463
  S    12.686942 12.625611  1.268949
  S    12.395004  9.034068  5.088760
  S    12.109405 13.152336  5.303208
