16  
    
  C     7.951145  6.314422  2.354578
  C     8.059945 10.499686  2.107462
  C     6.716120  5.946086  1.606044
  C     6.819645  9.899938  1.587144
  N     8.950420  6.652689  1.534302
  N     8.964898 10.754628  1.176725
  N     6.880469  5.859031  0.307317
  N     6.835460  9.650873  0.284840
  N     5.917921  6.338425  3.963179
  N     6.478633 10.237933  4.148328
  S     5.283067  5.705233  2.550787
  S     5.574079  9.769178  2.823024
  S     8.399476  6.341546 -0.008483
  S     8.269535 10.085179 -0.273208
  S     7.607098  6.543144  4.052126
  S     8.004327 10.873926  3.808700
