16  
    
  C     9.966652  7.598508  2.647864
  C     9.875698 11.290259  2.969114
  C     8.669002  7.389879  2.060895
  C     8.727211 10.768786  2.255679
  N    10.968868  7.698591  1.750964
  N    10.936023 11.566573  2.212592
  N     8.711329  7.274463  0.735942
  N     8.964218 10.595488  0.977025
  N     8.129984  7.377930  4.590003
  N     7.992732 11.056779  4.713609
  S     7.374993  7.203723  3.115794
  S     7.386402 10.476519  3.282418
  S    10.251172  7.558094  0.261869
  S    10.478662 11.115604  0.648929
  S     9.773930  7.778123  4.440307
  S     9.633223 11.407496  4.692834
