16  
    
  C     5.919060  5.033417  1.679321
  C     6.015540  8.911346  2.093996
  C     4.649681  4.750332  1.049138
  C     4.783814  8.593852  1.417257
  N     6.876632  5.219664  0.793058
  N     7.018135  9.026943  1.237799
  N     4.749801  4.611677 -0.280522
  N     4.853129  8.500425  0.085124
  N     4.219238  5.095607  3.570877
  N     4.171549  8.814875  3.934011
  S     3.332473  4.653635  2.158079
  S     3.458655  8.607969  2.472382
  S     6.271343  5.005593 -0.714823
  S     6.466247  8.793345 -0.264322
  S     5.865683  5.402532  3.366493
  S     5.858378  9.116430  3.796316
