16  
    
  C     6.617925  5.859669  2.148737
  C     6.423297  9.239130  1.943701
  C     5.441727  5.405498  1.443613
  C     5.258322  8.729469  1.252242
  N     7.626247  6.131796  1.335583
  N     7.462670  9.561844  1.152296
  N     5.651362  5.137154  0.163745
  N     5.401634  8.694320 -0.053669
  N     4.857988  5.380503  3.945138
  N     4.508270  8.911537  3.738385
  S     4.058215  5.115426  2.484761
  S     3.847320  8.574221  2.205048
  S     7.188227  5.625353 -0.206681
  S     6.929817  9.176056 -0.408632
  S     6.355996  6.076448  3.828002
  S     6.068950  9.433614  3.644494
