16  
    
  C     3.591861  4.599698  1.599737
  C     3.847253  8.299514  1.703387
  C     2.458420  3.944236  0.965864
  C     2.563705  8.025898  1.035643
  N     4.551634  4.957024  0.766832
  N     4.812961  8.590162  0.851921
  N     2.435020  4.078103 -0.346787
  N     2.666258  7.807997 -0.284506
  N     1.936027  4.327049  3.455341
  N     2.167854  7.995357  3.570815
  S     1.202023  3.678180  2.091456
  S     1.289986  7.870004  2.153320
  S     3.982132  4.650570 -0.751688
  S     4.237509  8.243825 -0.652200
  S     3.480215  4.798224  3.315882
  S     3.761626  8.388582  3.397844
