16  
    
  C     6.611853  5.958802  2.100867
  C     6.438439  9.376517  1.917613
  C     5.447682  5.367523  1.463843
  C     5.255993  8.913672  1.215195
  N     7.675005  6.025683  1.290174
  N     7.491618  9.580838  1.117843
  N     5.556521  5.215907  0.138701
  N     5.475355  8.704276 -0.070824
  N     4.832231  5.508479  3.972531
  N     4.604313  9.007294  3.653916
  S     4.037185  5.124853  2.526261
  S     3.937112  8.487560  2.284473
  S     7.107511  5.608517 -0.238814
  S     7.049604  9.219170 -0.410636
  S     6.412290  6.086749  3.842357
  S     6.208672  9.464907  3.663364
