16  
    
  C     7.924898  6.276817  2.151999
  C     8.103646 10.620017  2.181391
  C     6.680930  5.869751  1.520055
  C     6.963078  9.957930  1.620076
  N     8.857871  6.615424  1.272736
  N     9.083166 10.822101  1.302293
  N     6.715438  5.719369  0.212663
  N     7.109324  9.562422  0.365210
  N     6.175282  5.676201  4.022059
  N     6.318058 10.116383  4.044080
  S     5.406113  5.548574  2.623231
  S     5.618475  9.705933  2.573671
  S     8.243863  6.302521 -0.258310
  S     8.605709 10.185337 -0.135893
  S     7.707069  6.326800  3.917128
  S     7.848051 10.726893  3.931511
