16  
    
  C     3.998947  4.570581  1.736075
  C     3.812605  8.440406  1.658640
  C     2.696290  4.382620  1.141888
  C     2.680391  7.937929  0.967588
  N     4.952017  4.656254  0.810149
  N     4.964393  8.395031  1.014570
  N     2.729546  4.100103 -0.147387
  N     2.852444  7.743681 -0.327968
  N     2.099619  4.786423  3.557176
  N     1.913892  8.253141  3.431711
  S     1.326859  4.576792  2.098691
  S     1.277124  7.840649  1.965264
  S     4.240879  4.182479 -0.666863
  S     4.497919  7.959900 -0.565533
  S     3.811472  4.962588  3.468882
  S     3.513225  8.849196  3.355176
