16  
    
  C    10.948236  8.159715  3.009716
  C    10.814138 11.651119  2.774781
  C     9.766426  7.437929  2.536611
  C     9.637378 11.141734  2.148158
  N    11.789411  8.383897  1.980814
  N    11.852785 11.830953  1.943268
  N     9.765122  7.166400  1.217395
  N     9.726434 11.096864  0.800671
  N     9.590711  7.742608  5.124005
  N     9.139376 11.532343  4.730377
  S     8.712670  7.035546  3.854944
  S     8.394989 10.877847  3.344947
  S    11.196435  7.734491  0.605408
  S    11.279549 11.499447  0.442646
  S    11.000689  8.460790  4.723109
  S    10.831342 11.668157  4.559180
