16  
    
  C    10.968100  7.786002  3.090883
  C    11.032456 11.671578  2.758505
  C     9.728806  7.327180  2.521899
  C     9.779336 11.204782  2.136978
  N    11.896801  8.079382  2.201389
  N    11.968492 11.872200  1.866620
  N     9.644347  7.250280  1.205007
  N     9.863936 10.882915  0.872380
  N     9.355707  7.538358  5.168217
  N     9.432442 11.246053  4.648119
  S     8.493325  7.115234  3.769425
  S     8.535050 11.040137  3.277825
  S    11.172058  7.741330  0.680036
  S    11.422805 11.399894  0.378753
  S    11.015761  7.972713  4.838452
  S    10.901969 11.988655  4.486688
