16  
    
  C     9.132646  6.966611  2.686812
  C     9.700632 10.845255  2.779025
  C     7.994269  6.407903  1.968791
  C     8.550010 10.092802  2.160154
  N    10.119964  7.227702  1.861330
  N    10.588374 11.209331  1.865646
  N     8.098638  6.286742  0.668259
  N     8.571118 10.054901  0.859391
  N     7.390717  6.463559  4.446323
  N     8.190895 10.116334  4.680775
  S     6.676359  6.033743  3.026011
  S     7.338055  9.654157  3.307536
  S     9.693533  6.797149  0.341178
  S    10.033995 10.764539  0.385469
  S     9.037015  6.819560  4.378926
  S     9.598112 10.975924  4.480012
