16  
    
  C    10.737239  8.365869  2.961247
  C    10.746812 11.897988  3.059176
  C     9.534219  7.882528  2.316696
  C     9.648056 11.417314  2.331951
  N    11.751676  8.443415  2.096514
  N    11.855708 12.015686  2.343698
  N     9.668978  7.563262  1.008772
  N     9.879744 11.234599  1.031439
  N     8.969285  8.059176  4.818962
  N     8.845907 11.791923  4.783220
  S     8.214886  7.694548  3.403124
  S     8.215224 11.267104  3.323716
  S    11.193604  8.035975  0.625957
  S    11.446435 11.483336  0.818347
  S    10.592682  8.459968  4.713807
  S    10.497914 12.125853  4.742789
