16  
    
  C     6.873116  5.933573  2.228864
  C     7.207646  9.743376  2.258635
  C     5.852392  5.410041  1.374958
  C     5.952950  9.454118  1.576832
  N     8.059350  6.062439  1.660039
  N     8.243272  9.975920  1.493935
  N     6.235633  5.271733  0.116931
  N     6.129372  9.381591  0.270851
  N     4.784497  5.574909  3.687466
  N     5.536034  9.363255  4.121407
  S     4.332014  5.238289  2.187882
  S     4.630329  9.390287  2.734412
  S     7.852309  5.621248  0.088450
  S     7.727803  9.664083 -0.071566
  S     6.333752  6.136093  3.823699
  S     7.068080 10.019671  3.973255
