16  
    
  C     3.592314  4.428874  1.599477
  C     3.823265  8.391656  1.640386
  C     2.408310  3.904172  0.954532
  C     2.585552  7.971937  1.011590
  N     4.518507  4.889381  0.798737
  N     4.848101  8.638953  0.841022
  N     2.525706  3.968274 -0.384945
  N     2.707682  7.868818 -0.293211
  N     1.910994  4.243410  3.485916
  N     2.104128  7.925183  3.513918
  S     1.176701  3.578395  2.173589
  S     1.234239  7.856375  2.145612
  S     3.964894  4.667734 -0.724213
  S     4.248577  8.303716 -0.698365
  S     3.497811  4.821594  3.249618
  S     3.719757  8.361274  3.380953
