16  
    
  C     5.547061  5.349146  1.790948
  C     5.097047  9.015849  1.657170
  C     4.215447  5.077505  1.245890
  C     3.898700  8.594180  1.023027
  N     6.479946  5.465628  0.854742
  N     6.161574  9.222994  0.880858
  N     4.161424  5.061804 -0.083716
  N     4.086582  8.345704 -0.265258
  N     3.780535  5.277500  3.735922
  N     3.354576  8.718743  3.554575
  S     2.908681  5.199633  2.374747
  S     2.577223  8.271632  2.127493
  S     5.717300  5.194686 -0.607476
  S     5.612084  8.717431 -0.602700
  S     5.484134  5.386089  3.585073
  S     4.978271  9.058009  3.365083
