16  
    
  C     9.813009  7.454755  2.595529
  C    10.319490 11.416406  2.562116
  C     8.655327  6.691415  2.073595
  C     9.115261 10.838501  1.968788
  N    10.730824  7.689921  1.638958
  N    11.279272 11.556711  1.684065
  N     8.661156  6.371221  0.784162
  N     9.175808 10.658688  0.659751
  N     7.958386  7.386032  4.402827
  N     8.656908 11.108258  4.446295
  S     7.289349  6.548871  3.152317
  S     7.782157 10.832951  3.084428
  S    10.064780  7.057403  0.200879
  S    10.697402 11.099600  0.178233
  S     9.518519  7.930083  4.229668
  S    10.243813 11.549428  4.269423
