16  
    
  C     3.560338  4.593038  1.559528
  C     3.690520  8.412536  1.458188
  C     2.411888  3.950503  0.980906
  C     2.438067  8.041290  0.834917
  N     4.464470  4.955795  0.655147
  N     4.737283  8.574252  0.644141
  N     2.464707  3.667114 -0.324816
  N     2.516401  8.129077 -0.476323
  N     2.009902  3.879262  3.523592
  N     1.948039  8.180903  3.351166
  S     1.229197  3.387069  2.066240
  S     1.136530  7.643202  1.912872
  S     3.972163  4.273025 -0.778853
  S     4.103956  8.452984 -0.878699
  S     3.472872  4.626536  3.337420
  S     3.535086  8.573925  3.167707
