16  
    
  C     6.788380  5.882916  1.493275
  C     7.219992  9.917725  2.425329
  C     5.678281  5.142621  0.996552
  C     5.963057  9.512792  1.910286
  N     7.844003  6.055171  0.700837
  N     8.237422 10.022205  1.593595
  N     5.867970  4.693608 -0.252934
  N     5.998882  9.215775  0.620924
  N     5.112814  5.797246  3.414060
  N     5.675959  9.767883  4.471259
  S     4.452075  4.923407  2.231770
  S     4.726416  9.521394  3.143073
  S     7.411221  5.193815 -0.639300
  S     7.628749  9.449305  0.182151
  S     6.634844  6.355418  3.130430
  S     7.193417 10.301411  4.142536
