16  
    
  C     8.930320  7.144820  2.370379
  C     9.177840 10.836078  2.348112
  C     7.752301  6.753239  1.605529
  C     7.890036 10.520178  1.688998
  N    10.021993  7.402306  1.641434
  N    10.187555 10.964979  1.472483
  N     7.969898  6.897815  0.279874
  N     7.987490 10.354593  0.371699
  N     7.154985  6.569674  4.180307
  N     7.459442 10.620841  4.264724
  S     6.324676  6.411242  2.726856
  S     6.585013 10.460996  2.888749
  S     9.532024  7.346472  0.064227
  S     9.576499 10.651833 -0.011458
  S     8.686618  7.156655  4.070386
  S     9.077256 10.934178  4.054910
