16  
    
  C    10.868343  8.108439  3.196742
  C    10.632657 12.000940  3.196792
  C     9.664811  7.660105  2.583566
  C     9.442772 11.321993  2.689338
  N    11.862223  8.201329  2.305099
  N    11.434708 12.394008  2.221181
  N     9.709198  7.406905  1.267516
  N     9.455689 11.006743  1.403513
  N     9.195806  7.685355  5.098277
  N     9.101202 11.740999  5.267022
  S     8.413377  7.205000  3.765022
  S     8.309732 10.954510  3.981104
  S    11.206261  7.819219  0.775391
  S    10.917289 11.724467  0.807585
  S    10.788135  8.117557  4.980630
  S    10.716728 12.075837  4.938973
