16  
    
  C     8.208510  6.559161  2.280651
  C     8.037087 10.124635  2.395571
  C     7.030455  5.973964  1.698226
  C     6.879338  9.481372  1.796756
  N     9.269206  6.605957  1.451958
  N     9.038627 10.444542  1.599473
  N     7.118666  5.776432  0.364598
  N     7.019993  9.254584  0.501644
  N     6.384900  6.336723  4.170747
  N     6.296580  9.908961  4.259200
  S     5.639014  5.940316  2.776323
  S     5.526064  9.389996  2.887490
  S     8.663201  6.070036 -0.036828
  S     8.529274  9.803387  0.102712
  S     8.012590  6.801528  4.006506
  S     7.892084 10.297645  4.134056
