16  
    
  C    12.065007  8.829962  3.470545
  C    11.836700 12.330711  3.351146
  C    10.841928  8.542747  2.701547
  C    10.529626 12.022293  2.746837
  N    13.173128  9.058307  2.764003
  N    12.788468 12.494693  2.453030
  N    11.039067  8.415980  1.401084
  N    10.601479 11.872437  1.416915
  N    10.154004  8.545021  5.251737
  N    10.332312 12.071271  5.333732
  S     9.482991  8.313917  3.753381
  S     9.294413 11.888538  3.988889
  S    12.718197  8.728312  1.179480
  S    12.130980 12.250377  0.940498
  S    11.833723  8.894847  5.185310
  S    11.938504 12.264520  5.030384
