16  
    
  C     6.681634  6.238610  2.369405
  C     7.223520  9.686051  2.194045
  C     5.651212  5.360388  1.830681
  C     5.940207  9.492709  1.583624
  N     7.609576  6.645594  1.475266
  N     8.211595  9.803079  1.306677
  N     5.642653  5.349159  0.495308
  N     5.953978  9.340744  0.280012
  N     5.342081  5.206012  4.341684
  N     5.417158  9.372873  4.069781
  S     4.522532  4.679847  2.991731
  S     4.576154  9.461408  2.690702
  S     7.031797  6.090890 -0.002312
  S     7.582304  9.491945 -0.172616
  S     6.680910  6.243554  4.162555
  S     7.077839  9.834591  3.946028
