16  
    
  C    12.729931  9.211204  3.686645
  C    12.836503 12.488731  3.532514
  C    11.552169  8.575822  3.216048
  C    11.577541 12.184216  2.907965
  N    13.656367  9.400974  2.764256
  N    13.834344 12.718145  2.676068
  N    11.471980  8.431142  1.924946
  N    11.625869 12.063896  1.596510
  N    11.226275  8.546474  5.763660
  N    11.050139 12.280988  5.474760
  S    10.287845  8.218075  4.343990
  S    10.289601 11.878350  4.032932
  S    12.960912  8.851215  1.301788
  S    13.203136 12.559900  1.177088
  S    12.755933  9.237730  5.418675
  S    12.668841 12.734253  5.319989
