16  
    
  C    10.973414  7.937139  3.041585
  C    10.971808 11.748052  2.730350
  C     9.752754  7.389124  2.594223
  C     9.762162 11.171494  2.141420
  N    11.841872  8.220166  2.076803
  N    11.972824 11.834168  1.865362
  N     9.698248  7.230488  1.294843
  N     9.836861 10.964943  0.838974
  N     9.533188  7.533638  5.083021
  N     9.310722 11.223363  4.698658
  S     8.536505  7.075542  3.825957
  S     8.409756 11.007727  3.270781
  S    11.140891  7.702267  0.689284
  S    11.328524 11.430892  0.396257
  S    10.998544  8.145334  4.768198
  S    10.875066 11.885303  4.453558
