16  
    
  C     6.576049  5.734281  2.005522
  C     6.621576  9.425492  1.869636
  C     5.308995  5.450117  1.431838
  C     5.466221  8.848823  1.253595
  N     7.555452  5.938688  1.124938
  N     7.637203  9.630090  1.035689
  N     5.303995  5.166368  0.121274
  N     5.527671  8.713702 -0.084928
  N     4.908795  5.765112  3.996368
  N     4.831048  8.932547  3.804153
  S     4.092720  5.363153  2.631940
  S     4.102208  8.694211  2.325314
  S     6.870685  5.530704 -0.332892
  S     6.995172  9.321931 -0.508781
  S     6.505483  6.082521  3.721687
  S     6.440997  9.666785  3.641022
