16  
    
  C     9.317371  6.729108  2.433087
  C     9.231129 10.748082  2.953808
  C     8.092461  6.318015  1.754288
  C     7.944031 10.483052  2.309550
  N    10.340948  6.704766  1.559806
  N    10.242812 10.649865  2.116644
  N     8.229520  5.799668  0.531569
  N     8.031215 10.061546  1.035983
  N     7.356300  6.872585  4.169341
  N     7.380569 10.884058  4.804261
  S     6.715319  6.332683  2.775352
  S     6.577485 10.678511  3.356625
  S     9.824872  5.992700  0.160825
  S     9.700954 10.050483  0.700620
  S     8.983040  7.236707  4.108182
  S     9.037223 11.094429  4.656537
