16  
    
  C     6.562007  5.871786  1.904179
  C     6.612969  9.611748  1.889742
  C     5.283343  5.431200  1.378610
  C     5.330169  9.202040  1.293945
  N     7.548568  5.818416  1.027355
  N     7.583140  9.683648  1.002154
  N     5.297893  5.299991  0.056504
  N     5.421245  8.871418  0.007310
  N     4.956747  5.775928  3.909530
  N     5.021930  9.199538  3.877313
  S     4.122418  5.454126  2.590728
  S     4.111129  8.923622  2.487875
  S     6.876001  5.482211 -0.433818
  S     6.991585  9.251047 -0.504579
  S     6.580428  5.990593  3.612900
  S     6.547227  9.706249  3.650120
