16  
    
  C     5.785128  5.550686  2.040052
  C     5.857494  8.970532  1.983777
  C     4.557866  5.205175  1.379566
  C     4.655996  8.673417  1.305952
  N     6.831217  5.529540  1.219031
  N     6.916062  9.122745  1.205600
  N     4.677263  5.076124  0.050525
  N     4.792093  8.466927  0.008404
  N     4.004688  5.576110  3.832435
  N     4.008014  9.010624  3.731886
  S     3.126592  5.476671  2.378040
  S     3.300177  8.747139  2.328723
  S     6.275982  5.180136 -0.326566
  S     6.454172  8.774073 -0.326842
  S     5.634228  5.885484  3.795986
  S     5.645266  9.172754  3.732455
