16  
    
  C     9.576494  7.346393  2.902817
  C     9.702636 10.964964  2.791057
  C     8.465865  6.818789  2.103509
  C     8.433401 10.449601  2.160043
  N    10.687411  7.630891  2.258023
  N    10.680681 11.166948  1.944027
  N     8.749752  6.789537  0.807985
  N     8.513876 10.402749  0.843225
  N     7.792613  6.713089  4.655192
  N     7.913693 10.721048  4.639830
  S     7.148174  6.305427  3.144747
  S     7.124296 10.237408  3.247187
  S    10.316454  7.401014  0.642296
  S    10.063058 10.900045  0.431386
  S     9.285300  7.447584  4.626062
  S     9.526322 11.071349  4.509035
