16  
    
  C    12.760834  8.992920  3.783894
  C    12.802780 12.468547  3.688130
  C    11.518006  8.610757  3.188728
  C    11.614965 12.057633  3.027237
  N    13.654684  9.260913  2.863793
  N    13.836968 12.702863  2.896009
  N    11.445372  8.430326  1.876635
  N    11.687128 12.098666  1.708962
  N    11.257182  8.443908  5.772687
  N    10.967149 12.271898  5.500603
  S    10.361179  8.164969  4.413432
  S    10.261193 11.885204  4.107561
  S    12.990540  8.923477  1.374721
  S    13.193098 12.592379  1.325493
  S    12.628055  9.245660  5.578582
  S    12.569935 12.706675  5.389268
