16  
    
  C     3.448970  4.621002  1.503489
  C     3.629882  8.379874  1.382660
  C     2.366388  3.864857  0.914768
  C     2.351831  8.052845  0.720451
  N     4.499945  4.849156  0.740150
  N     4.619094  8.646349  0.527531
  N     2.609947  3.585853 -0.372496
  N     2.444892  8.052902 -0.605957
  N     2.025421  3.837976  3.486829
  N     1.904290  8.217637  3.277710
  S     1.154025  3.392318  2.156439
  S     1.127805  7.681041  1.933968
  S     4.057157  4.295253 -0.766938
  S     4.025003  8.437208 -1.015026
  S     3.487600  4.582944  3.189208
  S     3.473265  8.622346  3.088536
