16  
    
  C    11.963111  8.635932  3.421574
  C    11.817935 12.066010  3.179215
  C    10.758169  8.051299  2.936051
  C    10.525917 11.666548  2.615723
  N    12.919035  8.919196  2.532452
  N    12.814244 12.101946  2.283280
  N    10.797030  7.821781  1.626669
  N    10.489450 11.670714  1.308319
  N    10.359851  8.453178  5.397558
  N    10.059939 11.879316  5.129347
  S     9.486302  7.899981  4.089326
  S     9.208998 11.538086  3.750108
  S    12.298324  8.251631  1.088324
  S    12.098417 12.020414  0.807747
  S    11.871768  8.955557  5.118285
  S    11.668089 12.348034  4.909759
