16  
    
  C     4.503869  5.026949  1.741348
  C     4.138392  8.722901  1.644621
  C     3.256483  4.701887  1.112484
  C     3.026971  8.229514  0.815572
  N     5.506176  5.119559  0.916185
  N     5.195292  9.141645  0.959656
  N     3.277636  4.600943 -0.200034
  N     3.318590  8.285920 -0.478650
  N     2.739691  4.886845  3.577063
  N     2.189939  8.114335  3.213872
  S     1.892827  4.738901  2.161765
  S     1.642235  7.702532  1.687388
  S     4.904845  4.795229 -0.618949
  S     4.809321  8.908681 -0.632771
  S     4.351536  5.314411  3.413488
  S     3.885510  8.494612  3.321912
