16  
    
  C     6.390364  5.852737  1.999687
  C     6.108271  9.179379  1.765964
  C     5.140551  5.342388  1.415566
  C     4.850701  8.843835  1.112122
  N     7.467966  5.820414  1.210323
  N     7.135599  9.280562  0.942372
  N     5.253748  5.171697  0.100339
  N     4.957154  8.594096 -0.194735
  N     4.668270  5.625345  3.873862
  N     4.411827  8.848400  3.600593
  S     3.755410  5.246400  2.561337
  S     3.526798  8.569796  2.214425
  S     6.876468  5.426550 -0.292818
  S     6.518727  8.935947 -0.579907
  S     6.288769  6.160810  3.724038
  S     5.911861  9.400560  3.480057
