16  
    
  C     9.773366  7.675704  2.881219
  C     9.907498 11.130154  2.809663
  C     8.653232  7.157220  2.121409
  C     8.638233 10.902865  2.180094
  N    10.840268  7.911429  2.122580
  N    10.926555 11.291528  1.946123
  N     8.851315  6.986048  0.819277
  N     8.705380 10.688321  0.838541
  N     7.812779  7.611308  4.510314
  N     8.134506 10.932351  4.743164
  S     7.275604  6.856817  3.110470
  S     7.289026 10.905324  3.276021
  S    10.407980  7.504480  0.547639
  S    10.308050 10.988311  0.458178
  S     9.500889  7.839468  4.594668
  S     9.762547 11.242109  4.528322
