16  
    
  C    12.064347  8.829101  3.464112
  C    11.833495 12.319147  3.349331
  C    10.842297  8.540807  2.701790
  C    10.523460 12.024909  2.743439
  N    13.165149  9.055962  2.760161
  N    12.786599 12.491883  2.450996
  N    11.033174  8.423452  1.398635
  N    10.597109 11.854935  1.410357
  N    10.157343  8.544323  5.246871
  N    10.336957 12.073706  5.328343
  S     9.477663  8.312133  3.758818
  S     9.297916 11.889264  3.993652
  S    12.715011  8.723129  1.182142
  S    12.129201 12.253216  0.938750
  S    11.835050  8.888220  5.179164
  S    11.933954 12.258718  5.026376
