16  
    
  C     8.743117  7.310970  2.652533
  C     9.050328 11.076610  2.183026
  C     7.579175  6.569958  2.093004
  C     7.844989 10.601846  1.472386
  N     9.650194  7.640337  1.714849
  N    10.030158 11.350867  1.338704
  N     7.559539  6.508491  0.772442
  N     7.943082 10.557908  0.145328
  N     7.014431  6.711338  4.601461
  N     7.233116 10.388417  4.007040
  S     6.264342  6.275595  3.192395
  S     6.468945 10.274109  2.515200
  S     8.958011  7.154587  0.228930
  S     9.496700 10.957861 -0.210174
  S     8.557345  7.374410  4.411447
  S     8.829885 10.903111  3.927045
