16  
    
  C    12.740772  8.848561  3.545794
  C    12.251830 12.997896  3.790371
  C    11.473461  8.405568  2.965484
  C    11.190478 12.254259  3.160266
  N    13.724786  9.024332  2.663345
  N    13.309500 13.137224  2.980602
  N    11.429316  8.317189  1.667974
  N    11.325064 12.034294  1.856926
  N    10.874356  8.666260  5.504105
  N    10.481244 12.553170  5.578234
  S    10.159053  8.218942  4.013108
  S     9.976621 11.732897  4.203966
  S    13.001947  8.724793  1.177000
  S    12.819741 12.581591  1.510865
  S    12.462149  9.113792  5.275067
  S    12.052908 13.120982  5.526364
