16  
    
  C     9.121234  7.019561  2.350467
  C     9.062226 11.043971  2.698762
  C     7.901607  6.695105  1.667419
  C     7.911364 10.522464  2.079720
  N    10.171720  7.143425  1.570516
  N    10.097931 11.235968  1.894747
  N     8.016506  6.470757  0.367187
  N     7.987210 10.365497  0.782605
  N     7.272967  6.841151  4.175308
  N     7.356298 10.735962  4.629566
  S     6.494890  6.486583  2.736266
  S     6.580113 10.311086  3.217174
  S     9.649954  6.776257 -0.005568
  S     9.532242 10.775167  0.350070
  S     8.913315  7.094607  4.067393
  S     8.921480 11.287876  4.398003
