16  
    
  C    11.906682  8.648163  3.351476
  C    11.667358 12.136266  3.187714
  C    10.658020  8.049358  2.887864
  C    10.467111 11.652665  2.557737
  N    12.847290  8.730083  2.447329
  N    12.605106 12.439372  2.318946
  N    10.690976  7.769041  1.589293
  N    10.449261 11.557019  1.222923
  N    10.367328  8.598592  5.388080
  N     9.956209 11.990415  4.995465
  S     9.473313  7.957046  4.112384
  S     9.197790 11.465210  3.695362
  S    12.147382  8.317543  0.973719
  S    12.070933 12.007440  0.831902
  S    11.897375  9.073061  5.078345
  S    11.524082 12.363479  4.934669
