16  
    
  C     5.821335  5.476253  2.102185
  C     5.868531  8.948953  1.934706
  C     4.561394  5.286019  1.435991
  C     4.661391  8.666234  1.180330
  N     6.864841  5.476278  1.298973
  N     6.948163  9.121599  1.190761
  N     4.636249  5.085533  0.122829
  N     4.869557  8.529041 -0.146155
  N     3.944653  5.608509  3.895007
  N     3.991878  9.131327  3.718799
  S     3.234168  5.554662  2.437512
  S     3.229695  8.807206  2.218636
  S     6.251536  5.279479 -0.233917
  S     6.451536  8.803839 -0.382492
  S     5.623087  5.905216  3.800007
  S     5.657430  9.264194  3.616665
