16  
    
  C     9.172904  6.935580  2.383300
  C     8.966768 10.737076  2.342284
  C     7.967965  6.442772  1.796535
  C     7.753282 10.276653  1.715247
  N    10.166948  7.122271  1.543814
  N     9.968543 10.902246  1.482968
  N     8.039244  6.297777  0.478767
  N     7.872942 10.093330  0.381444
  N     7.542100  6.847037  4.343179
  N     7.163285 10.756659  4.152178
  S     6.667538  6.382110  3.020950
  S     6.427044 10.013346  2.814189
  S     9.611055  6.748863  0.056236
  S     9.451337 10.489323  0.029129
  S     9.120416  7.289742  4.045281
  S     8.783677 11.131536  4.026919
