16  
    
  C     5.835830  5.609646  2.175243
  C     5.914150  9.112659  1.745151
  C     4.541624  5.447964  1.486583
  C     4.675055  8.931971  1.007400
  N     6.874329  5.492375  1.374279
  N     7.028712  9.073416  1.018183
  N     4.666047  5.366431  0.163493
  N     4.883586  8.700521 -0.295315
  N     4.060032  5.909193  3.981888
  N     3.979679  9.265881  3.498349
  S     3.162751  5.594076  2.618291
  S     3.320420  8.782190  2.055646
  S     6.324017  5.265471 -0.183409
  S     6.480678  8.768099 -0.554534
  S     5.761483  5.829810  3.912190
  S     5.648064  9.442089  3.461811
