16  
    
  C     4.965654  4.883143  1.778637
  C     4.688050  8.848008  1.725668
  C     3.640875  4.590803  1.253594
  C     3.407374  8.504067  1.199956
  N     5.892243  4.886759  0.803641
  N     5.599115  9.241161  0.854540
  N     3.562180  4.444194 -0.062238
  N     3.336283  8.433864 -0.119939
  N     3.290707  4.460476  3.730385
  N     3.189568  8.511078  3.776230
  S     2.367108  4.449873  2.371128
  S     2.197363  8.191392  2.424963
  S     5.036828  4.742324 -0.628755
  S     4.885003  8.945002 -0.645466
  S     4.848925  4.894031  3.561564
  S     4.799381  8.848925  3.468023
