16  
    
  C     9.188896  6.751873  2.554496
  C     9.630233 10.760582  2.770760
  C     8.013762  6.337040  1.877512
  C     8.493662 10.172217  2.209832
  N    10.226693  7.029382  1.771534
  N    10.613724 10.981672  1.881923
  N     8.129411  6.295352  0.542715
  N     8.447023 10.051737  0.889069
  N     7.350117  6.498417  4.365873
  N     8.081979 10.340730  4.792323
  S     6.648841  5.974272  2.975840
  S     7.265433  9.809256  3.429860
  S     9.751093  6.745482  0.213176
  S     9.994055 10.593443  0.386003
  S     9.000315  6.775713  4.264803
  S     9.594055 10.933406  4.508584
