16  
    
  C    12.854586  9.411073  3.424084
  C    12.798155 12.980272  3.583387
  C    11.682530  8.806586  2.805885
  C    11.544462 12.571249  3.004005
  N    13.977472  9.395480  2.629389
  N    13.813196 12.957964  2.714079
  N    11.859117  8.532992  1.506461
  N    11.609755 12.255942  1.726253
  N    11.094178  9.018478  5.293627
  N    11.044038 12.925710  5.496683
  S    10.373083  8.502892  3.904151
  S    10.247568 12.429485  4.104284
  S    13.432888  8.836929  1.172946
  S    13.183130 12.383671  1.206181
  S    12.513695  9.745711  5.174573
  S    12.739800 13.199916  5.287735
