16  
    
  C    11.008629  8.144546  2.947773
  C    10.869406 11.778588  3.053809
  C     9.799998  7.723619  2.343581
  C     9.675780 11.322810  2.410532
  N    12.018867  8.305822  2.083822
  N    11.904815 12.137265  2.264332
  N     9.875356  7.574514  1.013760
  N     9.875067 11.127218  1.099129
  N     9.243356  7.829759  4.797527
  N     9.031890 11.619162  4.834862
  S     8.466345  7.580741  3.383523
  S     8.277482 11.138647  3.460763
  S    11.426684  8.015116  0.590528
  S    11.360960 11.702841  0.749100
  S    10.776966  8.489651  4.659136
  S    10.560755 12.215865  4.699409
