16  
    
  C     9.862940  7.572706  2.648298
  C     9.862308 11.239915  3.008079
  C     8.608133  7.266860  2.027975
  C     8.740923 10.656156  2.265986
  N    10.858380  7.832200  1.801256
  N    10.870445 11.594149  2.179760
  N     8.695694  7.173239  0.686578
  N     8.989393 10.451716  0.962025
  N     8.127990  7.389648  4.579608
  N     8.072775 10.671364  4.779328
  S     7.278019  7.121079  3.185382
  S     7.379220 10.360499  3.297713
  S    10.276853  7.478183  0.320549
  S    10.462662 11.063901  0.624531
  S     9.796373  7.713285  4.320344
  S     9.569011 11.451700  4.687433
