16  
    
  C    12.863514  9.204768  3.417327
  C    12.814636 13.030476  3.456850
  C    11.682745  8.631934  2.806318
  C    11.571592 12.508298  2.924729
  N    13.890334  9.464451  2.641428
  N    13.865453 12.899455  2.694816
  N    11.935441  8.335734  1.536548
  N    11.701422 12.211717  1.631026
  N    11.088483  9.110016  5.228644
  N    11.125016 13.119737  5.384429
  S    10.318260  8.460337  3.895295
  S    10.290634 12.489233  4.092733
  S    13.451119  8.881510  1.184991
  S    13.309148 12.403176  1.196875
  S    12.632966  9.666908  5.115347
  S    12.801189 13.295296  5.184551
