16  
    
  C     7.875069  6.355139  2.344179
  C     8.000878 10.497900  2.081255
  C     6.739922  5.901039  1.650079
  C     6.806902  9.900355  1.613197
  N     8.942772  6.639260  1.583255
  N     8.911649 10.756710  1.170648
  N     6.846904  5.853278  0.325231
  N     6.793513  9.611596  0.298372
  N     5.885083  6.350318  3.987183
  N     6.492014 10.245324  4.144057
  S     5.294508  5.748166  2.559785
  S     5.544546  9.790685  2.837008
  S     8.447832  6.350948  0.028950
  S     8.286091 10.073960 -0.271899
  S     7.593322  6.562058  4.028074
  S     8.019579 10.824866  3.764838
