16  
    
  C     3.670856  4.407390  1.563618
  C     3.571209  8.444043  1.219398
  C     2.569408  3.661077  0.965276
  C     2.293913  8.034979  0.701463
  N     4.600471  4.749586  0.681418
  N     4.482761  8.811300  0.305152
  N     2.582316  3.647227 -0.362010
  N     2.358555  7.774894 -0.586142
  N     1.894489  3.976477  3.399396
  N     1.950883  8.128519  3.179571
  S     1.200537  3.497524  1.969078
  S     1.007315  7.817879  1.824598
  S     3.996142  4.279985 -0.849709
  S     3.794497  8.350790 -1.152052
  S     3.416039  4.670484  3.313389
  S     3.540218  8.538656  2.961389
