16  
    
  C     5.917864  5.053698  1.670326
  C     6.006534  8.908613  2.073985
  C     4.656466  4.690500  1.045010
  C     4.763168  8.631809  1.407304
  N     6.885167  5.220328  0.798033
  N     7.006695  9.060694  1.230512
  N     4.750922  4.619951 -0.287560
  N     4.842797  8.485956  0.088573
  N     4.246041  5.060503  3.540241
  N     4.177062  8.828213  3.931768
  S     3.335158  4.628997  2.145467
  S     3.467216  8.610132  2.466777
  S     6.284631  4.986945 -0.718423
  S     6.481971  8.786644 -0.280161
  S     5.879857  5.368338  3.367675
  S     5.859809  9.118642  3.787154
