16  
    
  C     9.079121  6.925687  2.316308
  C     9.056591 11.066986  2.749564
  C     7.836041  6.638247  1.612496
  C     7.810513 10.583678  2.120907
  N    10.182204  7.077086  1.564537
  N    10.076657 11.297530  1.926917
  N     8.070327  6.411666  0.303560
  N     8.000257 10.390762  0.783079
  N     7.339723  6.805731  4.238519
  N     7.342385 10.791848  4.676128
  S     6.546973  6.475384  2.810890
  S     6.586591 10.282096  3.317711
  S     9.680184  6.670332  0.025033
  S     9.550822 10.741145  0.434759
  S     8.941446  7.157470  4.042940
  S     8.891116 11.318238  4.477815
