16  
    
  C    11.798826  8.739935  3.544191
  C    11.617286 12.225585  3.290923
  C    10.608769  8.369055  2.869261
  C    10.422652 11.828711  2.548684
  N    12.865069  8.810792  2.725821
  N    12.718649 12.364009  2.550391
  N    10.688985  8.230703  1.533719
  N    10.713531 11.429059  1.329760
  N     9.999855  8.526811  5.332863
  N     9.618576 11.855234  4.999698
  S     9.238254  8.239199  3.912501
  S     8.977394 11.512817  3.474656
  S    12.282291  8.410015  1.191707
  S    12.275941 11.897564  0.997759
  S    11.609717  8.994233  5.259062
  S    11.205300 12.222914  4.969369
