16  
    
  C     5.520033  5.281628  1.797736
  C     5.170470  8.972457  1.676643
  C     4.169125  5.214543  1.288037
  C     4.000483  8.471615  0.998101
  N     6.471439  5.360133  0.894045
  N     6.243199  9.047304  0.898032
  N     4.151518  5.018616 -0.031252
  N     4.114671  8.375022 -0.326040
  N     3.984704  5.152069  3.872248
  N     3.388868  8.630970  3.491470
  S     2.993827  5.120104  2.558143
  S     2.636422  8.217553  2.095441
  S     5.704551  5.248138 -0.572548
  S     5.760103  8.686621 -0.657613
  S     5.571933  5.405911  3.514505
  S     4.931423  9.250210  3.439817
