16  
    
  C     6.810683  6.111105  2.313020
  C     7.262616  9.745948  2.140975
  C     5.813160  5.428610  1.558078
  C     6.035930  9.507805  1.490422
  N     7.911171  6.370999  1.615215
  N     8.273280  9.840244  1.307152
  N     6.076800  5.339162  0.266063
  N     6.070177  9.282392  0.204002
  N     4.860235  5.638227  3.907185
  N     5.522944  9.640607  4.042132
  S     4.444105  4.968386  2.449350
  S     4.706675  9.344451  2.557297
  S     7.589080  5.956262  0.036895
  S     7.681023  9.512445 -0.240577
  S     6.435129  6.091188  4.050118
  S     7.104513  9.821692  3.897079
