16  
    
  C     5.577522  5.368651  1.929424
  C     5.491788  9.027393  1.780111
  C     4.314408  4.936534  1.400700
  C     4.380499  8.370897  1.104888
  N     6.427364  5.752496  0.989496
  N     6.563209  9.228862  1.005424
  N     4.347989  4.687866  0.085870
  N     4.584052  8.190002 -0.207797
  N     4.073090  5.038935  3.987664
  N     3.585885  8.772407  3.523641
  S     3.124816  4.658524  2.651828
  S     2.971134  8.130964  2.121720
  S     5.822849  5.251365 -0.438405
  S     6.068084  8.729525 -0.519492
  S     5.687776  5.548327  3.671423
  S     5.170007  9.084107  3.494454
