16  
    
  C    12.744244  9.282850  3.328586
  C    12.655315 12.966776  3.554455
  C    11.492266  8.796012  2.777748
  C    11.503068 12.472373  2.824129
  N    13.804111  9.281669  2.509009
  N    13.713161 13.261005  2.826498
  N    11.628450  8.502122  1.472922
  N    11.801625 12.229106  1.557312
  N    10.984182  8.965536  5.301753
  N    10.829123 12.555093  5.301824
  S    10.195686  8.560420  3.856387
  S    10.162768 12.048543  3.851415
  S    13.192065  8.820164  1.068039
  S    13.386463 12.598536  1.252251
  S    12.635824  9.501053  5.084498
  S    12.339962 13.244533  5.254998
