16  
    
  C     9.895664  7.641626  2.645932
  C     9.892979 11.288091  2.970030
  C     8.607816  7.306331  2.022101
  C     8.761037 10.675380  2.287219
  N    10.932637  7.730729  1.813739
  N    10.912717 11.608925  2.202229
  N     8.662208  7.223802  0.703366
  N     8.970925 10.471922  1.019344
  N     8.211153  7.420290  4.537846
  N     8.053797 10.798466  4.741373
  S     7.325741  7.167084  3.145074
  S     7.380485 10.403629  3.283953
  S    10.241810  7.519841  0.257974
  S    10.478485 11.106037  0.654030
  S     9.805712  7.745948  4.400986
  S     9.600855 11.453286  4.676001
