16  
    
  C     9.453721  7.032147  3.003786
  C     9.602879 10.837554  2.651334
  C     8.323005  6.513389  2.253598
  C     8.341066 10.404116  2.002244
  N    10.435878  7.552863  2.256296
  N    10.557524 11.116960  1.752988
  N     8.516773  6.497163  0.926357
  N     8.386969 10.326716  0.663459
  N     7.699392  6.415268  4.795656
  N     7.949281 10.383149  4.547828
  S     7.004352  6.012359  3.318491
  S     7.091876 10.060524  3.115439
  S    10.007921  7.227479  0.698424
  S     9.946475 10.809652  0.267118
  S     9.295598  6.999716  4.645478
  S     9.518714 10.904783  4.336066
