16  
    
  C    12.075740  8.513911  3.481278
  C    12.069611 12.322236  3.267911
  C    10.845124  8.100551  2.789652
  C    10.937358 11.702094  2.598977
  N    13.157603  8.730266  2.700765
  N    13.179409 12.433427  2.572369
  N    10.992876  8.100175  1.449054
  N    11.258137 11.364343  1.369092
  N    10.278146  8.350835  5.302242
  N    10.296687 11.962657  5.036983
  S     9.434706  8.062645  3.891972
  S     9.661184 11.326438  3.703872
  S    12.617080  8.411621  1.153168
  S    12.769804 11.814496  1.057516
  S    11.815986  8.779898  5.177004
  S    11.887859 12.425414  4.969651
