16  
    
  C    11.316743  8.079573  3.312331
  C    11.353090 11.794949  3.304207
  C    10.103113  7.772059  2.665045
  C    10.029109 11.618430  2.762217
  N    12.422770  8.095226  2.532095
  N    12.318784 11.779834  2.394798
  N    10.146016  7.648137  1.320735
  N    10.011989 11.284351  1.489284
  N     9.411814  8.375192  5.108911
  N     9.764473 12.205842  5.296833
  S     8.722723  7.678132  3.762976
  S     8.877247 11.738298  3.948420
  S    11.812303  7.783922  0.980375
  S    11.589831 11.458080  0.915663
  S    11.120582  8.496930  4.983476
  S    11.436710 12.120378  5.009416
