16  
    
  C    12.163098  9.026005  3.440288
  C    12.023865 12.512128  3.453227
  C    11.046258  8.498344  2.733079
  C    10.814297 12.191073  2.765537
  N    13.248319  9.220106  2.723361
  N    13.127620 12.506468  2.672273
  N    11.298432  8.395415  1.450347
  N    10.918790 12.135070  1.422198
  N    10.397397  8.804097  5.214043
  N    10.247917 12.235804  5.363447
  S     9.675383  8.335335  3.836135
  S     9.447524 11.864947  3.876379
  S    12.887257  8.841480  1.204342
  S    12.594267 12.361338  1.119736
  S    11.992376  9.262833  5.176385
  S    11.870737 12.775484  5.187991
