16  
    
  C    12.424148  9.108256  3.355202
  C    12.224421 12.795800  3.387837
  C    11.159897  8.653178  2.843140
  C    11.060584 12.247504  2.679257
  N    13.384990  9.205231  2.457138
  N    13.326751 12.856901  2.649181
  N    11.169265  8.378783  1.538535
  N    11.370748 11.783474  1.465963
  N    10.822836  9.176997  5.351539
  N    10.567384 12.569099  5.199177
  S     9.921110  8.664099  4.110197
  S     9.761939 12.013348  3.881637
  S    12.721649  8.659504  1.010911
  S    12.968085 12.207198  1.155275
  S    12.391458  9.558276  4.989734
  S    12.082960 13.163142  5.045663
