16  
    
  C     6.745661  5.982398  2.339250
  C     7.028106  9.721089  2.327481
  C     5.589349  5.266844  1.862841
  C     5.816690  9.335737  1.705540
  N     7.559112  6.479989  1.406114
  N     8.007344 10.023073  1.473838
  N     5.526792  5.207768  0.548105
  N     5.836842  9.320363  0.363682
  N     5.235166  5.466245  4.421363
  N     5.235811  9.662023  4.264229
  S     4.407188  4.774195  3.117666
  S     4.396554  9.252113  2.769915
  S     6.866437  5.991781 -0.041304
  S     7.342939  9.662829 -0.085867
  S     6.762473  6.091628  4.117953
  S     6.886452  9.883573  4.069721
