16  
    
  C     7.865988  6.186964  2.168146
  C     8.033503 10.323946  2.181165
  C     6.616576  5.878993  1.520788
  C     6.858424  9.796564  1.512378
  N     8.858027  6.575578  1.391288
  N     9.049083 10.591523  1.382677
  N     6.741374  5.793828  0.194387
  N     7.023374  9.591832  0.223360
  N     6.217818  5.791876  4.035591
  N     6.299940 10.140003  4.084475
  S     5.389748  5.464090  2.682996
  S     5.525714  9.679144  2.650471
  S     8.321987  6.322695 -0.130734
  S     8.636911 10.146127 -0.133855
  S     7.846919  6.278571  3.855635
  S     7.896051 10.582108  3.886727
