16  
    
  C     4.553280  5.052427  1.615569
  C     4.338763  8.578781  1.487131
  C     3.304487  4.637268  1.032059
  C     3.141324  7.992994  0.922803
  N     5.551203  5.228403  0.766716
  N     5.354583  8.676106  0.645142
  N     3.340574  4.578199 -0.288743
  N     3.258780  7.666977 -0.355600
  N     2.829759  4.829915  3.525437
  N     2.616060  8.466890  3.408035
  S     1.979834  4.567518  2.110437
  S     1.791634  7.951820  1.994323
  S     4.915603  4.856551 -0.689414
  S     4.814975  8.088690 -0.754900
  S     4.326713  5.506905  3.285805
  S     4.214843  8.877852  3.167861
