16  
    
  C     9.859407  7.365713  2.545498
  C    10.370451 11.309080  2.548729
  C     8.676337  6.715955  2.077584
  C     9.133199 10.870411  1.956585
  N    10.756589  7.648192  1.607087
  N    11.339364 11.522131  1.646349
  N     8.700614  6.473877  0.783409
  N     9.198825 10.644625  0.633963
  N     8.033956  7.313394  4.456207
  N     8.652220 11.070357  4.461742
  S     7.327567  6.552866  3.138829
  S     7.807006 10.874805  3.061929
  S    10.098106  7.061337  0.177555
  S    10.716413 11.122236  0.222765
  S     9.557546  7.929574  4.183729
  S    10.269025 11.530200  4.297509
