16  
    
  C     4.563998  5.089486  1.997216
  C     4.681478  8.658057  1.447382
  C     3.398199  4.668241  1.246346
  C     3.535728  8.170233  0.784177
  N     5.657850  5.331758  1.285511
  N     5.732820  8.915233  0.694027
  N     3.625040  4.618314 -0.054892
  N     3.652509  7.998857 -0.513526
  N     2.653301  5.005162  3.694579
  N     2.891139  8.340302  3.281744
  S     1.992955  4.459017  2.243651
  S     2.177865  7.910553  1.796968
  S     5.227995  4.896461 -0.265420
  S     5.213572  8.446699 -0.869614
  S     4.348007  5.167070  3.714278
  S     4.500553  8.802327  3.153496
