16  
    
  C     7.715104  6.724462  2.421983
  C     7.838155 10.128463  2.064684
  C     6.554317  6.158411  1.750235
  C     6.554772  9.901718  1.441766
  N     8.838152  6.649564  1.685712
  N     8.860606 10.016650  1.187910
  N     6.806926  5.876796  0.439583
  N     6.602678  9.696932  0.121216
  N     5.883905  6.575566  4.249013
  N     6.158082 10.303262  3.975791
  S     5.128367  6.099627  2.762151
  S     5.261670  9.912529  2.608297
  S     8.424762  6.141248  0.161995
  S     8.290479  9.880647 -0.290208
  S     7.473419  7.021528  4.142292
  S     7.784548 10.550127  3.719499
