16  
    
  C     5.806626  5.530917  1.966727
  C     5.911703  9.092241  2.069805
  C     4.506068  5.365822  1.275813
  C     4.691540  8.669933  1.361004
  N     6.881557  5.591031  1.153884
  N     7.003354  9.096613  1.282150
  N     4.647754  4.987063  0.008832
  N     4.825689  8.463353  0.050786
  N     3.943858  5.592647  3.840659
  N     4.031352  8.939688  3.867308
  S     3.130030  5.370160  2.373357
  S     3.263355  8.657388  2.378317
  S     6.298350  5.109203 -0.350932
  S     6.396371  8.731355 -0.282136
  S     5.621299  5.827153  3.666286
  S     5.691450  9.106952  3.774900
