16  
    
  C     5.728310  5.722032  1.823874
  C     5.920324  8.983607  2.116466
  C     4.499415  5.271577  1.206672
  C     4.647387  8.762301  1.441705
  N     6.818137  5.498163  1.077660
  N     6.961392  9.081623  1.281924
  N     4.674924  4.967609 -0.066157
  N     4.800802  8.496918  0.157664
  N     4.022454  5.599281  3.703975
  N     4.086622  8.830389  3.892609
  S     3.205284  5.209785  2.328441
  S     3.301361  8.547329  2.477842
  S     6.268907  5.035757 -0.400470
  S     6.454703  8.700890 -0.207918
  S     5.606974  5.720796  3.539557
  S     5.754091  9.056079  3.821866
