16  
    
  C     9.855754  7.576561  2.665667
  C     9.865303 11.262790  2.993238
  C     8.599246  7.240946  2.024815
  C     8.741494 10.627210  2.245555
  N    10.831880  7.843971  1.801365
  N    10.857893 11.564456  2.158688
  N     8.701054  7.142079  0.695331
  N     8.961394 10.452281  0.954197
  N     8.114231  7.373827  4.586278
  N     8.081879 10.650860  4.777448
  S     7.268942  7.100522  3.189858
  S     7.374155 10.344748  3.303351
  S    10.291075  7.468970  0.327115
  S    10.460199 11.053639  0.629668
  S     9.773210  7.699679  4.317797
  S     9.553377 11.438213  4.691794
