16  
    
  C     6.986858  5.950269  1.818203
  C     7.229693  9.755778  2.487028
  C     5.928366  5.127715  1.264078
  C     5.999238  9.396742  1.822815
  N     8.017921  6.222992  1.029901
  N     8.295878  9.831637  1.714443
  N     6.068172  4.901803 -0.052502
  N     6.125025  9.189902  0.519415
  N     5.216966  5.828587  3.691359
  N     5.505903  9.895788  4.393983
  S     4.577688  4.973319  2.364596
  S     4.683944  9.580100  2.969596
  S     7.567124  5.578140 -0.443290
  S     7.711580  9.381198  0.197724
  S     6.808464  6.442134  3.494520
  S     7.170000 10.127301  4.163522
