16  
    
  C    12.203047  9.126913  3.458089
  C    12.076491 12.423530  3.463277
  C    11.045064  8.573526  2.732891
  C    10.788029 12.164710  2.747574
  N    13.301273  9.224933  2.710757
  N    13.161930 12.623864  2.738903
  N    11.255696  8.359993  1.404924
  N    11.048487 12.115348  1.450484
  N    10.452915  8.858754  5.207246
  N    10.309169 12.319906  5.293088
  S     9.698787  8.323194  3.886142
  S     9.460011 11.897105  3.865045
  S    12.899294  8.830187  1.153296
  S    12.665054 12.368040  1.159552
  S    12.039332  9.298124  5.173728
  S    11.859601 12.829695  5.157080
