16  
    
  C     7.885044  6.347427  2.346399
  C     8.010251 10.497655  2.084516
  C     6.738114  5.907821  1.645153
  C     6.812143  9.901178  1.610283
  N     8.945017  6.642091  1.575763
  N     8.918499 10.758748  1.175005
  N     6.849673  5.853624  0.323992
  N     6.799924  9.617667  0.294225
  N     5.887035  6.348294  3.981660
  N     6.490841 10.244120  4.145697
  S     5.292609  5.741943  2.558211
  S     5.547844  9.787576  2.835320
  S     8.441333  6.349977  0.023836
  S     8.282425 10.074408 -0.272764
  S     7.596897  6.559564  4.031544
  S     8.017825 10.831931  3.770536
