16  
    
  C     5.073843  5.432727  1.846793
  C     5.119223  8.673976  1.386180
  C     3.801585  4.907798  1.338124
  C     3.851842  8.355941  0.866299
  N     6.104127  5.355764  1.027404
  N     6.057661  8.880723  0.457044
  N     3.899028  4.593485  0.030530
  N     3.866649  8.052050 -0.430550
  N     3.454047  5.752558  3.839539
  N     3.410522  8.888018  3.357486
  S     2.501481  5.254534  2.452810
  S     2.581650  8.334886  2.037154
  S     5.526469  4.723431 -0.396498
  S     5.386253  8.421314 -0.970051
  S     5.107627  5.810100  3.503517
  S     5.047702  9.034065  3.093007
