16  
    
  C     5.459114  5.514299  1.648594
  C     5.315896  8.918778  1.697301
  C     4.263883  5.077930  1.029188
  C     4.163454  8.421371  0.939988
  N     6.470904  5.717400  0.795389
  N     6.370815  9.216029  0.931224
  N     4.331336  4.958180 -0.277960
  N     4.440883  8.203165 -0.336406
  N     3.673524  5.142290  3.553971
  N     3.331157  8.729502  3.367518
  S     2.850643  5.066731  2.052336
  S     2.688689  8.338567  1.900571
  S     5.800456  5.497001 -0.707058
  S     5.961783  8.725942 -0.614779
  S     5.263159  5.674116  3.390805
  S     4.981607  9.124579  3.405494
