16  
    
  C    11.316315  8.532744  3.355405
  C    11.450266 12.224030  3.300013
  C    10.164533  7.889125  2.701561
  C    10.190851 11.755913  2.834836
  N    12.398473  8.627560  2.568417
  N    12.431778 12.268071  2.368595
  N    10.412202  7.487520  1.435857
  N    10.269134 11.276211  1.594318
  N     9.506372  8.347578  5.197711
  N     9.778286 12.244065  5.402943
  S     8.783144  7.825696  3.736775
  S     8.878218 11.796060  4.017211
  S    11.970751  7.902574  1.136161
  S    11.778120 11.603925  1.011361
  S    11.111453  8.837368  5.048881
  S    11.343929 12.804426  4.944104
