16  
    
  C     5.944798  5.732907  2.194115
  C     5.973351  9.209634  1.626412
  C     4.659271  5.574820  1.574920
  C     4.709922  8.942419  0.951995
  N     6.941796  5.440281  1.355540
  N     7.049921  9.161368  0.840785
  N     4.672571  5.405244  0.262991
  N     4.902570  8.674262 -0.324374
  N     4.148645  5.897993  4.023048
  N     4.163747  9.093543  3.400617
  S     3.349907  5.666050  2.662423
  S     3.343868  8.775549  1.992180
  S     6.258408  5.279669 -0.143933
  S     6.512858  8.753046 -0.661075
  S     5.802350  5.811048  3.875128
  S     5.715663  9.522781  3.320362
