16  
    
  C     8.004105  6.628274  2.674135
  C     8.712148 10.285315  2.679601
  C     6.863179  6.253794  1.946513
  C     7.479615  9.881665  2.106278
  N     9.096250  6.858885  1.947640
  N     9.700165 10.381016  1.797568
  N     7.057169  5.923792  0.680752
  N     7.511115  9.680711  0.782227
  N     6.080548  6.251459  4.398530
  N     6.927183 10.188451  4.556619
  S     5.506454  5.849887  2.886891
  S     6.074702  9.850592  3.140119
  S     8.674830  6.314751  0.420221
  S     9.054385 10.028568  0.352981
  S     7.666656  6.783894  4.384762
  S     8.469495 10.775576  4.370089
