16  
    
  C     6.563073  5.768381  2.078471
  C     6.424778  9.430535  1.903361
  C     5.367357  5.399740  1.433477
  C     5.307674  8.919810  1.182073
  N     7.583708  6.008236  1.281817
  N     7.507013  9.646725  1.174879
  N     5.461718  5.221881  0.131083
  N     5.488018  8.764939 -0.121660
  N     4.823868  5.684155  3.967483
  N     4.700926  9.108762  3.733339
  S     4.147933  5.189614  2.572814
  S     4.010200  8.451625  2.285323
  S     7.053494  5.605846 -0.233027
  S     7.066071  9.222823 -0.388219
  S     6.414531  6.068905  3.792515
  S     6.306954  9.485598  3.613830
