16  
    
  C     9.373652  7.017222  2.906714
  C     9.629307 10.829495  2.614661
  C     8.178863  6.538882  2.235992
  C     8.487475 10.204780  1.976025
  N    10.371586  7.296242  2.081731
  N    10.607213 11.192616  1.809131
  N     8.246279  6.536239  0.912138
  N     8.587887 10.237187  0.664725
  N     7.556712  6.564622  4.743604
  N     7.979129 10.288139  4.497609
  S     6.912893  5.952154  3.309461
  S     7.235189  9.773619  3.130018
  S     9.760852  7.027597  0.541215
  S    10.015398 10.894549  0.247130
  S     9.153753  6.913448  4.658160
  S     9.532604 10.874011  4.339328
