16  
    
  C     9.569707  7.332553  2.911487
  C     9.700523 10.947455  2.805606
  C     8.497440  6.875379  2.085783
  C     8.510511 10.506564  2.168551
  N    10.668359  7.626872  2.227744
  N    10.693865 11.186682  1.953929
  N     8.763579  6.796671  0.772575
  N     8.528420 10.404062  0.840263
  N     7.814311  6.756096  4.686483
  N     7.901573 10.741506  4.675451
  S     7.146065  6.357773  3.142761
  S     7.138703 10.229248  3.263425
  S    10.346763  7.420594  0.622081
  S    10.100369 10.917050  0.449239
  S     9.306967  7.486088  4.594871
  S     9.525680 11.096867  4.528071
