16  
    
  C     9.353377  7.012327  2.906482
  C     9.616013 10.828340  2.621693
  C     8.181754  6.522862  2.231168
  C     8.524659 10.208065  1.974180
  N    10.348106  7.286152  2.083853
  N    10.597497 11.201581  1.815046
  N     8.222549  6.545553  0.910902
  N     8.582336 10.227364  0.671517
  N     7.565392  6.567080  4.725668
  N     7.991904 10.279833  4.486952
  S     6.893772  5.950854  3.311184
  S     7.245670  9.757905  3.126431
  S     9.764057  7.021255  0.541157
  S    10.020097 10.891816  0.256361
  S     9.150071  6.920499  4.633586
  S     9.537400 10.876461  4.344099
