16  
    
  C     3.788239  4.669679  1.599055
  C     3.776879  8.441522  1.672898
  C     2.516970  4.515268  0.980372
  C     2.627540  7.892521  1.059937
  N     4.768745  4.676854  0.721203
  N     4.838163  8.485090  0.894047
  N     2.479739  4.471923 -0.331732
  N     2.758189  7.449304 -0.165984
  N     1.936359  4.730104  3.430538
  N     1.962768  8.408368  3.509448
  S     1.196283  4.421111  1.988107
  S     1.233429  7.927077  2.133176
  S     4.083931  4.481434 -0.820895
  S     4.345815  7.835418 -0.565303
  S     3.589362  4.904350  3.367241
  S     3.579282  8.782521  3.380548
