16  
    
  C     4.992227  4.798019  1.748239
  C     4.698435  8.887761  1.747453
  C     3.645525  4.635375  1.229288
  C     3.425720  8.425785  1.217342
  N     5.897555  4.894514  0.761175
  N     5.628404  9.182730  0.843228
  N     3.555415  4.426787 -0.060719
  N     3.368962  8.408178 -0.106325
  N     3.343162  4.445389  3.724988
  N     3.189592  8.552484  3.774284
  S     2.358661  4.444867  2.409680
  S     2.224396  8.224121  2.469867
  S     5.018066  4.755149 -0.693001
  S     4.873632  8.913645 -0.661131
  S     4.908645  4.885570  3.521337
  S     4.791889  8.850638  3.473141
