16  
    
  C    10.786287  8.253991  2.922878
  C    10.833478 11.982014  3.016212
  C     9.591059  7.822810  2.279203
  C     9.624010 11.555502  2.339737
  N    11.818426  8.495849  2.139537
  N    11.953050 11.988853  2.293940
  N     9.683362  7.673828  0.958333
  N     9.801044 11.232082  1.074628
  N     8.989142  8.123833  4.819851
  N     8.884465 11.829128  4.756068
  S     8.233404  7.667279  3.395974
  S     8.246647 11.171752  3.371466
  S    11.313508  7.993405  0.583183
  S    11.476530 11.515522  0.763254
  S    10.631260  8.356424  4.622181
  S    10.479888 12.150500  4.745418
