16  
    
  C    12.060923  8.592967  3.552894
  C    11.974666 12.280209  3.244910
  C    10.875814  8.069051  2.936442
  C    10.667186 11.872875  2.696445
  N    13.081291  8.801762  2.717861
  N    12.953022 12.298935  2.347582
  N    10.981710  7.969713  1.613823
  N    10.697936 11.507093  1.431305
  N    10.208170  8.324833  5.375984
  N    10.293916 11.920133  5.132289
  S     9.502756  7.901900  3.990605
  S     9.350972 11.542817  3.826726
  S    12.559659  8.328321  1.240701
  S    12.254367 11.838354  0.876818
  S    11.782685  8.816274  5.276704
  S    11.858163 12.198009  4.980329
