16  
    
  C    12.410105  9.141721  3.286730
  C    12.218937 12.773287  3.362553
  C    11.137145  8.583104  2.824756
  C    11.089123 12.186078  2.737799
  N    13.421805  9.206783  2.446839
  N    13.320404 12.949654  2.646698
  N    11.164454  8.325113  1.534236
  N    11.376625 11.806924  1.493928
  N    10.892384  9.094610  5.360532
  N    10.411986 12.623378  5.222069
  S     9.889585  8.648695  4.113539
  S     9.762339 12.070875  3.811522
  S    12.754528  8.743632  0.975748
  S    12.948730 12.194407  1.225564
  S    12.375972  9.558675  4.959909
  S    12.031976 13.103819  5.020595
