16  
    
  C     9.633665  7.263981  3.018122
  C     9.627071 10.864384  2.733091
  C     8.505571  6.735193  2.272605
  C     8.345429 10.477042  2.074336
  N    10.609023  7.710695  2.223776
  N    10.574858 11.165491  1.826470
  N     8.661741  6.726705  0.964867
  N     8.422308 10.355274  0.748630
  N     7.717189  6.590888  4.665185
  N     7.892659 10.593759  4.645845
  S     7.164480  6.148020  3.108825
  S     7.096952 10.221605  3.206498
  S    10.170989  7.298028  0.669331
  S     9.994525 10.822903  0.349300
  S     9.220554  7.257400  4.705923
  S     9.521152 10.985993  4.444555
