16  
    
  C     4.457570  5.065973  1.560987
  C     4.136117  8.642306  1.635927
  C     3.193385  4.702052  0.981466
  C     3.046737  8.332716  0.804901
  N     5.489777  5.046688  0.687732
  N     5.209780  9.119404  0.999749
  N     3.188527  4.685501 -0.351177
  N     3.338194  8.348150 -0.505342
  N     2.721292  5.104334  3.472650
  N     2.168097  7.904553  3.238425
  S     1.924243  4.582296  2.123188
  S     1.651159  7.718162  1.695038
  S     4.831516  4.817777 -0.840702
  S     4.895477  8.878519 -0.628204
  S     4.354583  5.185911  3.331841
  S     3.764709  8.463796  3.359547
