16  
    
  C     5.655161  5.196347  1.959685
  C     5.664050  9.045117  1.997426
  C     4.470300  4.570742  1.356595
  C     4.477894  8.436175  1.375184
  N     6.625047  5.530814  1.115636
  N     6.608089  9.303545  1.105641
  N     4.621527  4.300005  0.069465
  N     4.464198  8.434553  0.060079
  N     3.944862  5.049690  3.855710
  N     3.976121  8.727033  3.831258
  S     3.281502  4.196291  2.615538
  S     3.296868  8.029894  2.505146
  S     6.093539  5.000002 -0.400586
  S     6.006490  8.973163 -0.412704
  S     5.466717  5.630654  3.631506
  S     5.574742  9.171973  3.742790
