16  
    
  C     4.404752  4.895029  1.200086
  C     4.418039  8.359473  1.310432
  C     3.113249  4.792250  0.565941
  C     3.242928  7.791925  0.671872
  N     5.385260  5.047299  0.287674
  N     5.467546  8.463357  0.488206
  N     3.127174  4.657880 -0.754646
  N     3.362800  7.708873 -0.654151
  N     2.531685  4.693201  3.108715
  N     2.582865  8.176861  3.193005
  S     1.738261  4.629115  1.656534
  S     1.873295  7.740465  1.754065
  S     4.690735  4.740451 -1.203764
  S     4.916422  8.173911 -1.045793
  S     4.150403  5.235453  2.994778
  S     4.255036  8.509121  3.054639
