16  
    
  C     8.692501  7.115363  2.617596
  C     9.038956 10.876412  2.142405
  C     7.489215  6.610199  1.957378
  C     7.785502 10.575114  1.426597
  N     9.538555  7.676449  1.785422
  N    10.062372 11.142113  1.361172
  N     7.594866  6.541502  0.642099
  N     7.943470 10.507280  0.112512
  N     7.102604  6.636164  4.483756
  N     7.296565 10.443417  3.949343
  S     6.253678  6.314090  3.071385
  S     6.492199 10.344486  2.531871
  S     9.035013  7.348688  0.272833
  S     9.551235 10.922557 -0.220684
  S     8.581394  7.350612  4.305024
  S     8.880671 10.903524  3.850659
