16  
    
  C     6.734716  5.790740  2.118127
  C     6.726751  9.733650  2.195619
  C     5.450139  5.627752  1.544372
  C     5.473369  9.259433  1.719989
  N     7.706465  5.898175  1.216724
  N     7.652253  9.832308  1.252320
  N     5.423759  5.368125  0.232395
  N     5.418053  9.032582  0.412152
  N     5.016293  5.585529  4.065316
  N     5.173862  9.278265  4.220554
  S     4.206747  5.310549  2.679366
  S     4.198185  9.102113  2.837812
  S     6.967963  5.615536 -0.250596
  S     6.941905  9.409864 -0.154113
  S     6.656027  5.970493  3.819130
  S     6.719388  9.855756  4.008267
