16  
    
  C    12.769788  9.021246  3.465323
  C    12.751590 12.754128  3.414552
  C    11.548639  8.428826  3.027108
  C    11.526400 12.357181  2.753398
  N    13.645886  9.379988  2.512146
  N    13.795544 12.957031  2.633171
  N    11.485379  8.323081  1.686202
  N    11.758569 12.033020  1.476414
  N    11.104370  9.093567  5.550549
  N    11.041048 12.345863  5.299154
  S    10.304047  8.368265  4.218696
  S    10.284797 11.938746  3.895204
  S    12.988337  8.880546  1.090864
  S    13.281000 12.521771  1.072519
  S    12.738604  9.272930  5.211120
  S    12.596527 12.856311  5.151588
