16  
    
  C     3.474558  4.515871  1.490704
  C     3.567206  8.443710  1.314128
  C     2.358821  3.876855  0.874416
  C     2.361346  7.990523  0.715544
  N     4.515315  4.869658  0.742150
  N     4.573820  8.644265  0.494132
  N     2.591685  3.540870 -0.393703
  N     2.410170  8.023898 -0.612782
  N     2.042143  3.849852  3.519491
  N     1.925152  8.223166  3.268364
  S     1.145648  3.403700  2.143176
  S     1.131830  7.708890  1.911840
  S     4.077747  4.304565 -0.760448
  S     3.997804  8.429679 -1.043380
  S     3.478245  4.589048  3.183383
  S     3.464998  8.615027  3.080875
