16  
    
  C     9.862427  7.572420  2.654674
  C     9.863882 11.244772  3.010008
  C     8.606828  7.262463  2.028022
  C     8.739371 10.649800  2.260480
  N    10.851865  7.835423  1.799545
  N    10.867696 11.588628  2.174598
  N     8.697215  7.167496  0.686799
  N     8.985500 10.451831  0.959270
  N     8.123903  7.386638  4.581524
  N     8.074810 10.666480  4.779791
  S     7.275859  7.117156  3.186886
  S     7.378430 10.357515  3.298953
  S    10.279983  7.476197  0.322711
  S    10.462001 11.061669  0.625197
  S     9.792603  7.710594  4.317734
  S     9.565797 11.449358  4.688076
