16  
    
  C     9.583159  7.233412  2.999070
  C     9.568259 10.887780  2.637152
  C     8.482984  6.694854  2.265440
  C     8.365140 10.452391  2.066504
  N    10.597692  7.702415  2.233638
  N    10.581745 11.149398  1.814507
  N     8.639468  6.665117  0.956288
  N     8.398076 10.355497  0.734900
  N     7.675933  6.549495  4.697065
  N     7.906420 10.546626  4.631645
  S     7.160815  6.110657  3.136730
  S     7.081627 10.202408  3.209852
  S    10.135282  7.287883  0.659102
  S     9.989609 10.808058  0.309831
  S     9.233205  7.196878  4.750785
  S     9.506808 10.959885  4.434857
