16  
    
  C     6.842315  5.695617  1.831712
  C     7.189750  9.982856  2.421730
  C     5.740797  5.135281  1.043645
  C     5.906386  9.532528  1.809344
  N     8.011850  5.750060  1.215120
  N     8.224134 10.157088  1.628257
  N     6.106556  4.750239 -0.174752
  N     6.116067  9.265479  0.525826
  N     4.771281  6.072953  3.253343
  N     5.553482  9.797324  4.377224
  S     4.194865  5.108980  1.975566
  S     4.662340  9.317836  3.052892
  S     7.727505  5.157819 -0.340777
  S     7.613174  9.736939  0.091277
  S     6.384946  6.180092  3.488865
  S     7.150902 10.192301  4.150031
