16  
    
  C     4.036999  4.689390  1.712645
  C     3.901902  8.388812  1.669083
  C     2.732915  4.327921  1.141765
  C     2.699037  8.056902  0.932488
  N     5.054987  4.594762  0.865344
  N     4.977425  8.454434  0.914848
  N     2.765584  4.051012 -0.153821
  N     2.923157  7.798511 -0.335828
  N     2.211824  4.830611  3.555195
  N     2.021238  8.290694  3.364268
  S     1.364260  4.489580  2.152992
  S     1.282526  7.809327  1.912571
  S     4.343286  4.263001 -0.606161
  S     4.527463  7.981906 -0.580663
  S     3.867973  4.952326  3.424697
  S     3.584207  8.802615  3.330166
