16  
    
  C    10.946830  7.871309  3.130008
  C    11.524734 11.902356  3.045882
  C     9.778957  7.489401  2.429512
  C    10.376402 11.269264  2.400498
  N    12.028553  8.006855  2.336017
  N    12.577443 12.045720  2.229509
  N     9.957482  7.383568  1.110314
  N    10.617900 10.839652  1.151571
  N     9.021585  7.903797  4.865886
  N     9.736244 11.544998  4.931688
  S     8.364520  7.330690  3.454008
  S     9.138866 10.913994  3.504179
  S    11.563153  7.576886  0.822271
  S    12.101758 11.453807  0.786518
  S    10.740681  8.151792  4.814763
  S    11.299906 12.210783  4.812929
