16  
    
  C     8.984354  7.031607  2.359465
  C     9.150768 10.834937  2.440684
  C     7.806038  6.719712  1.618635
  C     7.928041 10.399381  1.833242
  N    10.032491  7.347297  1.626320
  N    10.141518 11.045796  1.600117
  N     7.948658  6.781021  0.308007
  N     7.964552 10.310092  0.524395
  N     7.135679  6.648166  4.137865
  N     7.450199 10.555647  4.388295
  S     6.444614  6.492902  2.663775
  S     6.602454 10.469619  2.945374
  S     9.572930  7.217339  0.032044
  S     9.569732 10.718234  0.052519
  S     8.739444  7.121031  4.105182
  S     9.035711 11.066387  4.169832
