16  
    
  C     3.505430  4.704592  1.498091
  C     3.548803  8.355214  1.289475
  C     2.353953  4.120639  0.872238
  C     2.305044  8.088303  0.685753
  N     4.531748  4.885174  0.645142
  N     4.550241  8.421139  0.437434
  N     2.448769  3.759610 -0.396908
  N     2.283540  8.109464 -0.651185
  N     1.648785  4.170494  3.273482
  N     1.866448  8.088367  3.223885
  S     0.982064  3.775110  1.821943
  S     1.050238  7.792968  1.859788
  S     3.942844  4.349252 -0.838910
  S     3.896809  8.300704 -1.082856
  S     3.122750  4.991144  3.260196
  S     3.437902  8.625917  3.069788
