16  
    
  C    11.233849  8.196382  3.189999
  C    11.445884 11.608131  3.276418
  C     9.946601  7.741826  2.612051
  C    10.153027 11.471289  2.694584
  N    12.255775  8.217555  2.364617
  N    12.434800 11.687068  2.409314
  N    10.005449  7.422165  1.323845
  N    10.180346 11.279469  1.381187
  N     9.462850  8.163478  5.145809
  N     9.697997 11.778009  5.144946
  S     8.721012  7.622228  3.776551
  S     8.805300 11.637124  3.774478
  S    11.602869  7.679150  0.893784
  S    11.779034 11.480444  0.886202
  S    11.142204  8.458527  4.918681
  S    11.334577 11.942935  4.984168
