16  
    
  C    10.450350  7.650278  3.056550
  C    10.591740 11.737349  3.069684
  C     9.187499  7.304044  2.428953
  C     9.375162 11.092811  2.655136
  N    11.430659  7.917185  2.159075
  N    11.409102 11.980278  2.040465
  N     9.204963  7.319233  1.086028
  N     9.291609 10.855213  1.339275
  N     8.686904  7.280762  4.970123
  N     9.221175 11.494783  5.219599
  S     7.904254  6.944763  3.546533
  S     8.262209 10.856365  3.969121
  S    10.694962  7.716193  0.668757
  S    10.727506 11.417971  0.679017
  S    10.302163  7.611965  4.768588
  S    10.616136 12.169498  4.707844
