16  
    
  C     4.569369  5.086963  1.724160
  C     4.214129  8.723501  1.559980
  C     3.321189  4.769452  1.096015
  C     3.033107  8.123667  0.890952
  N     5.582390  5.309631  0.870174
  N     5.261897  8.868789  0.760436
  N     3.403811  4.488317 -0.190042
  N     3.172370  8.027957 -0.432929
  N     2.638391  5.154777  3.505670
  N     2.475694  8.336378  3.324299
  S     1.971169  4.668709  2.062847
  S     1.748811  7.808092  1.982540
  S     4.991579  4.713259 -0.625564
  S     4.730728  8.438644 -0.779590
  S     4.300466  5.326734  3.444353
  S     4.084908  8.813614  3.247936
