16  
    
  C     5.112175  4.878422  1.726831
  C     4.994385  8.733611  1.803904
  C     3.759766  4.794562  1.265075
  C     3.716884  8.361038  1.263045
  N     5.979542  5.107804  0.734057
  N     5.999586  8.680032  0.936285
  N     3.564189  4.850406 -0.038047
  N     3.784220  8.073647 -0.034658
  N     3.575338  4.721246  3.798275
  N     3.353527  8.678028  3.805100
  S     2.593799  4.665793  2.513594
  S     2.452527  8.366846  2.474466
  S     5.069969  4.972207 -0.711851
  S     5.340551  8.247598 -0.535127
  S     5.178579  4.878760  3.506797
  S     4.925417  9.096645  3.519333
