16  
    
  C    10.492430  7.221499  2.786217
  C    10.277155 11.092627  2.755143
  C     9.187955  7.368928  2.161398
  C     8.998010 10.859959  2.118870
  N    11.545321  7.109747  1.966003
  N    11.307038 11.181893  1.911033
  N     9.205597  7.273746  0.823057
  N     9.105905 10.691921  0.788254
  N     8.830147  7.325977  4.681149
  N     8.556315 11.049436  4.629225
  S     7.919257  7.706060  3.347479
  S     7.685544 10.779293  3.237380
  S    10.853035  7.205215  0.410923
  S    10.680625 10.892428  0.348428
  S    10.459885  7.299662  4.507271
  S    10.157697 11.427869  4.423414
