16  
    
  C     9.598548  7.644496  2.724042
  C    10.088011 11.190117  2.644134
  C     8.478800  6.948043  2.101410
  C     8.832672 10.844790  2.066020
  N    10.646215  7.775288  1.913645
  N    11.099732 11.309016  1.791570
  N     8.673108  6.486676  0.874565
  N     8.853884 10.745715  0.751986
  N     7.855533  7.203853  4.594157
  N     8.415654 11.011649  4.589726
  S     7.183534  6.639920  3.164290
  S     7.507369 10.771149  3.193680
  S    10.172958  7.064666  0.449559
  S    10.417561 11.067581  0.255673
  S     9.310783  8.061236  4.437347
  S     9.975429 11.516964  4.348218
