16  
    
  C     8.164905  6.483906  2.265054
  C     7.990564 10.138736  2.367597
  C     6.987190  5.954697  1.670536
  C     6.847767  9.555064  1.747779
  N     9.223224  6.586578  1.453580
  N     9.043994 10.412441  1.569934
  N     7.115985  5.770110  0.354295
  N     7.006143  9.317588  0.443790
  N     6.381600  6.303677  4.166927
  N     6.310683  9.900378  4.252908
  S     5.576305  5.904380  2.810950
  S     5.484902  9.410964  2.896335
  S     8.667721  6.112384 -0.057483
  S     8.513097  9.801176  0.071382
  S     8.004521  6.740132  4.009350
  S     7.916791 10.302164  4.078409
