16  
    
  C     4.452699  5.012174  1.312317
  C     4.217520  8.546661  1.583490
  C     3.181203  4.677047  0.728604
  C     3.141332  8.129483  0.780472
  N     5.406301  5.122257  0.415072
  N     5.366325  8.818933  0.969109
  N     3.181750  4.432739 -0.576831
  N     3.341479  8.199619 -0.524349
  N     2.723704  4.974774  3.233918
  N     2.352046  7.789022  3.254436
  S     1.870358  4.669853  1.837802
  S     1.714784  7.740805  1.672431
  S     4.684793  4.876473 -1.095585
  S     4.940618  8.638512 -0.700191
  S     4.407155  5.117178  3.064161
  S     3.848634  8.521121  3.285942
