16  
    
  C     9.308581  6.738257  2.418803
  C     9.229695 10.772854  2.960724
  C     8.075189  6.305012  1.753113
  C     7.928806 10.463254  2.313544
  N    10.340743  6.714952  1.563821
  N    10.247850 10.674011  2.121915
  N     8.236832  5.780987  0.536615
  N     8.040674 10.065268  1.052425
  N     7.362220  6.872230  4.169318
  N     7.375311 10.905609  4.814294
  S     6.711034  6.341385  2.784407
  S     6.573803 10.667770  3.364878
  S     9.813450  5.995303  0.174700
  S     9.680166 10.070994  0.708357
  S     8.990273  7.236775  4.094282
  S     9.039668 11.092661  4.658672
