16  
    
  C     6.613647  5.731264  1.918581
  C     6.640047  9.583904  1.912221
  C     5.345735  5.459134  1.340958
  C     5.391222  9.205778  1.337753
  N     7.585585  5.832969  1.016712
  N     7.643007  9.706356  1.035176
  N     5.295122  5.316008  0.020078
  N     5.374386  8.954049  0.039336
  N     4.985778  5.841986  3.908326
  N     4.978212  9.250491  3.858086
  S     4.086263  5.445707  2.531762
  S     4.161713  8.964086  2.528854
  S     6.897191  5.507380 -0.462164
  S     6.904744  9.235543 -0.439956
  S     6.606039  5.985520  3.655740
  S     6.561646  9.740520  3.651011
