16  
    
  C     8.256040  6.597465  2.680101
  C     8.737048 10.518323  2.830866
  C     7.125232  6.044780  1.912908
  C     7.505642 10.066862  2.142033
  N     9.328853  6.823754  1.924628
  N     9.784907 10.682054  2.039808
  N     7.334551  5.949987  0.601609
  N     7.662543  9.798448  0.871415
  N     6.257451  6.303697  4.294844
  N     6.893669 10.349512  4.625518
  S     5.715886  5.855691  2.811539
  S     6.129672  9.953329  3.194362
  S     8.827272  6.487665  0.327959
  S     9.249651 10.118411  0.469332
  S     7.838226  6.826185  4.346914
  S     8.573993 10.531033  4.531152
