16  
    
  C    10.789555  8.438385  3.287164
  C    10.733094 11.924767  3.208564
  C     9.625650  7.783789  2.694802
  C     9.500052 11.506793  2.531244
  N    11.739698  8.668875  2.386348
  N    11.813038 12.012518  2.432257
  N     9.686132  7.524360  1.406428
  N     9.632432 11.261440  1.235295
  N     9.017472  8.210384  5.067753
  N     8.890881 11.680823  5.089097
  S     8.321783  7.492879  3.745869
  S     8.206860 11.052826  3.676106
  S    11.245892  7.955165  0.932150
  S    11.274930 11.603760  0.900884
  S    10.546037  8.734258  4.947830
  S    10.533507 12.055352  4.919403
