16  
    
  C     5.795708  5.549422  2.098423
  C     5.864560  8.923957  1.985478
  C     4.552878  5.187686  1.410330
  C     4.650571  8.680868  1.237152
  N     6.821681  5.485089  1.243439
  N     6.899045  9.131799  1.174805
  N     4.675580  5.097337  0.092293
  N     4.833862  8.487075 -0.068687
  N     3.970452  5.577287  3.827672
  N     4.025162  9.069676  3.734329
  S     3.180015  5.523149  2.406518
  S     3.273338  8.781969  2.275342
  S     6.263127  5.228995 -0.289882
  S     6.458079  8.790773 -0.348703
  S     5.634257  5.902514  3.814272
  S     5.636034  9.215534  3.682222
