16  
    
  C     7.505552  6.124819  2.154449
  C     7.876401  9.866096  2.271266
  C     6.352890  5.523810  1.562585
  C     6.677586  9.318395  1.739218
  N     8.485603  6.443757  1.307197
  N     8.829387 10.191645  1.385001
  N     6.473681  5.440086  0.240800
  N     6.688141  9.305236  0.410987
  N     5.869353  5.727816  4.144280
  N     6.261964  9.685411  4.272320
  S     5.104201  5.282016  2.751803
  S     5.462421  9.050796  2.984182
  S     7.964906  6.039173 -0.181021
  S     8.277680  9.846693 -0.086155
  S     7.450917  6.229885  3.875102
  S     7.844112 10.157378  3.999443
