16  
    
  C     6.881504  5.901681  2.129815
  C     7.213313  9.887882  2.339501
  C     5.853093  5.368219  1.285889
  C     6.003621  9.516338  1.744462
  N     8.086744  5.837290  1.563139
  N     8.266611 10.030356  1.510082
  N     6.255315  5.114292  0.048650
  N     6.084252  9.334574  0.427975
  N     4.704707  5.701316  3.554266
  N     5.473745  9.606466  4.270654
  S     4.261240  5.290150  1.975453
  S     4.642800  9.322162  2.776535
  S     7.885492  5.386490 -0.024805
  S     7.674956  9.767704 -0.006498
  S     6.330924  6.150484  3.807997
  S     7.065190 10.046661  4.086227
