16  
    
  C    11.381698  8.234909  3.385860
  C    11.386239 12.042264  3.270167
  C    10.135909  7.819326  2.677746
  C    10.066259 11.677550  2.867335
  N    12.435703  8.223657  2.610525
  N    12.367024 11.971353  2.387026
  N    10.282845  7.551338  1.399521
  N    10.013494 11.415412  1.572620
  N     9.450279  8.350645  5.067735
  N     9.831495 12.125557  5.414621
  S     8.724945  7.771632  3.705568
  S     8.843983 11.817379  4.099633
  S    11.925363  7.859064  1.063283
  S    11.560748 11.380469  0.950231
  S    11.119540  8.584560  5.044640
  S    11.469270 12.446918  4.937934
