16  
    
  C    10.740934  8.305760  3.032138
  C    10.759980 11.794545  3.103664
  C     9.512085  7.777304  2.423696
  C     9.625195 11.336231  2.371557
  N    11.748706  8.550419  2.186236
  N    11.847763 11.958472  2.375449
  N     9.616807  7.579918  1.113460
  N     9.824306 11.061862  1.096106
  N     9.037800  7.934289  4.946205
  N     8.848212 11.706000  4.783810
  S     8.159540  7.711177  3.485261
  S     8.145243 11.347356  3.354087
  S    11.149473  8.034524  0.668116
  S    11.482367 11.571117  0.808770
  S    10.547804  8.644398  4.732718
  S    10.454423 12.108627  4.795119
