16  
    
  C     6.377470  5.862097  1.989046
  C     6.101026  9.171246  1.760090
  C     5.134236  5.344314  1.422948
  C     4.855063  8.837823  1.101102
  N     7.467154  5.807359  1.209401
  N     7.142794  9.282587  0.944106
  N     5.236923  5.174940  0.107686
  N     4.953355  8.594104 -0.206946
  N     4.674238  5.623300  3.881395
  N     4.415021  8.850584  3.595067
  S     3.742006  5.256832  2.564298
  S     3.521202  8.571644  2.225353
  S     6.864688  5.419931 -0.295906
  S     6.511126  8.934404 -0.590093
  S     6.284360  6.159695  3.720474
  S     5.907138  9.402929  3.466044
