16  
    
  C     6.113055  5.602277  2.084418
  C     6.062409  9.174823  1.563447
  C     4.822765  5.457658  1.501301
  C     4.837139  8.698379  1.008632
  N     7.132371  5.587747  1.238208
  N     7.070189  9.364265  0.710155
  N     4.797808  5.189964  0.193217
  N     4.918784  8.466057 -0.290025
  N     4.418668  5.865282  4.040128
  N     4.238169  9.258976  3.459612
  S     3.526292  5.682872  2.678637
  S     3.472805  8.623285  2.053609
  S     6.406399  5.350276 -0.234630
  S     6.440576  8.862272 -0.776383
  S     6.075286  5.886869  3.766773
  S     5.895402  9.429960  3.287524
