16  
    
  C    12.779393  9.186225  3.448751
  C    12.712691 12.916503  3.648028
  C    11.613472  8.684155  2.790059
  C    11.553422 12.347605  2.974865
  N    13.815083  9.520666  2.653552
  N    13.738282 13.109433  2.822882
  N    11.844279  8.406680  1.500085
  N    11.702673 12.081017  1.663604
  N    10.940601  9.319152  5.270706
  N    10.927679 12.642494  5.436239
  S    10.193889  8.630285  3.877491
  S    10.105234 12.227080  4.056014
  S    13.357327  8.992587  1.094615
  S    13.263231 12.618142  1.293404
  S    12.592824  9.534867  5.119683
  S    12.512293 13.220250  5.368167
