16  
    
  C     7.797881  6.400449  2.151914
  C     8.048462 10.517486  2.165019
  C     6.639170  5.882291  1.520798
  C     6.911116  9.914839  1.570795
  N     8.836331  6.628042  1.355738
  N     9.050123 10.767276  1.348959
  N     6.703852  5.850311  0.192846
  N     7.024384  9.762525  0.264590
  N     6.140368  5.866888  3.980762
  N     6.424199 10.212873  4.090517
  S     5.303427  5.527421  2.606091
  S     5.601664  9.656058  2.732257
  S     8.355266  6.277328 -0.164480
  S     8.644273 10.236068 -0.136934
  S     7.778462  6.383479  3.857837
  S     7.886622 10.921800  3.850939
