16  
    
  C    11.898976  8.609009  3.316840
  C    11.491516 12.324070  3.123112
  C    10.626127  8.119069  2.871091
  C    10.381901 11.688406  2.529580
  N    12.822110  8.813245  2.404224
  N    12.537436 12.612087  2.352794
  N    10.614154  7.870182  1.565125
  N    10.609808 11.472903  1.201396
  N    10.343336  8.607636  5.398979
  N     9.846566 12.008645  5.153061
  S     9.419711  8.022869  4.156111
  S     9.098781 11.362396  3.693392
  S    12.134645  8.290381  1.021617
  S    12.117484 12.003602  0.849620
  S    11.904433  9.096966  4.965193
  S    11.503198 12.381851  4.865348
