16  
    
  C    12.324865  9.038110  3.802168
  C    12.623464 12.642813  3.560870
  C    11.169035  8.435332  3.150124
  C    11.317635 12.468422  2.893189
  N    13.338626  9.320712  2.963101
  N    13.629081 12.860468  2.717429
  N    11.295838  8.241293  1.833938
  N    11.402915 12.473812  1.574339
  N    10.644208  8.678936  5.602632
  N    10.871847 12.391672  5.439791
  S     9.903767  8.007236  4.279161
  S     9.997438 12.262970  4.067558
  S    12.831680  8.841674  1.467225
  S    13.040534 12.741832  1.188890
  S    12.117530  9.234967  5.465608
  S    12.457554 12.977132  5.290966
