16  
    
  C    12.245456  8.890546  3.514533
  C    11.973244 12.449992  3.424755
  C    11.069582  8.465899  2.798367
  C    10.715245 12.297961  2.827277
  N    13.312380  9.203004  2.800171
  N    13.016577 12.491907  2.571123
  N    11.206469  8.341937  1.499128
  N    10.755122 12.131190  1.502506
  N    10.245646  8.640852  5.223696
  N    10.294659 12.096369  5.298020
  S     9.582054  8.354328  3.712964
  S     9.502738 11.861536  3.896169
  S    12.796551  8.845021  1.207514
  S    12.285360 12.269836  1.036035
  S    11.847450  9.139721  5.206039
  S    11.806390 12.555786  5.195793
