16  
    
  C     6.619693  5.809954  2.103641
  C     6.196284  9.215166  1.901791
  C     5.424667  5.278935  1.451668
  C     5.004871  8.795983  1.205993
  N     7.639217  6.049619  1.284577
  N     7.223002  9.410011  1.089351
  N     5.643110  5.072734  0.175680
  N     5.183884  8.638423 -0.102213
  N     4.711430  5.689881  3.859071
  N     4.328055  9.022680  3.677459
  S     3.969475  5.082912  2.432031
  S     3.631083  8.527944  2.270235
  S     7.111822  5.633527 -0.266911
  S     6.796790  9.047863 -0.416983
  S     6.309766  6.049579  3.836754
  S     5.973687  9.323164  3.574767
