16  
    
  C     9.177959  6.737942  2.363291
  C     9.134944 10.813919  2.972775
  C     7.963742  6.283736  1.753841
  C     7.914730 10.398627  2.416811
  N    10.249888  6.813650  1.553353
  N    10.146580 10.946140  2.130430
  N     8.198551  5.761560  0.538423
  N     8.007206  9.999941  1.128914
  N     7.406941  7.044265  4.164069
  N     7.374058 10.968879  4.870135
  S     6.612245  6.313228  2.917209
  S     6.561090 10.550086  3.479679
  S     9.777263  6.101143  0.171639
  S     9.573253 10.425288  0.675738
  S     9.081525  7.247529  4.025098
  S     9.010870 11.213385  4.722650
