16  
    
  C     6.000456  5.534586  2.180310
  C     5.938320  9.222197  1.541901
  C     4.698874  5.552431  1.542231
  C     4.734254  8.739630  0.930915
  N     6.997937  5.545109  1.279538
  N     7.007766  9.233601  0.756132
  N     4.735745  5.341732  0.217476
  N     4.908806  8.500934 -0.362193
  N     4.245425  5.811223  4.083395
  N     4.234622  9.027024  3.479107
  S     3.350126  5.735630  2.670231
  S     3.398159  8.780637  2.007679
  S     6.324089  5.298924 -0.222234
  S     6.550077  8.830859 -0.741349
  S     5.999744  5.867100  3.917827
  S     5.812508  9.515662  3.253006
