16  
    
  C    11.582515  8.638903  3.210717
  C    11.378476 12.322580  3.305394
  C    10.447608  8.004248  2.631492
  C    10.262228 11.732077  2.582239
  N    12.509509  9.001910  2.312781
  N    12.374661 12.588015  2.476267
  N    10.502100  7.865102  1.292019
  N    10.412624 11.594161  1.277840
  N    10.002188  8.252909  5.147652
  N     9.487131 11.897596  5.018447
  S     9.218187  7.771647  3.825932
  S     8.859453 11.349229  3.547781
  S    11.937250  8.525495  0.844074
  S    11.897761 12.264911  0.951233
  S    11.525594  8.880437  4.956342
  S    11.103651 12.232097  5.076332
