16  
    
  C     6.915587  5.830603  2.096760
  C     7.295467  9.909219  2.421393
  C     5.840543  5.351902  1.247281
  C     6.010958  9.526012  1.761501
  N     8.114020  5.843097  1.511050
  N     8.263759 10.125054  1.553453
  N     6.216324  5.054812  0.017572
  N     6.111727  9.372354  0.456753
  N     4.684176  5.824485  3.439653
  N     5.403198  9.706203  4.203896
  S     4.269849  5.270818  1.968666
  S     4.654804  9.296264  2.843556
  S     7.840183  5.295363 -0.045535
  S     7.609071  9.747105  0.001327
  S     6.315772  6.118604  3.699308
  S     7.095955 10.070375  4.139776
