16  
    
  C    10.481330  7.217129  2.791666
  C    10.283279 11.106648  2.743313
  C     9.155896  7.381825  2.173402
  C     8.972288 10.829971  2.122375
  N    11.525325  7.110225  1.976530
  N    11.319592 11.159023  1.926140
  N     9.217595  7.302188  0.830969
  N     9.082406 10.703181  0.809318
  N     8.835644  7.313428  4.666249
  N     8.538392 11.035990  4.617247
  S     7.916685  7.692386  3.344806
  S     7.682740 10.750748  3.247511
  S    10.873659  7.191533  0.419601
  S    10.670376 10.893325  0.354990
  S    10.462007  7.279268  4.518434
  S    10.158963 11.415635  4.441830
