16  
    
  C    11.959960  8.651836  3.429470
  C    11.812940 12.048092  3.179789
  C    10.757321  8.052138  2.937341
  C    10.513507 11.670992  2.607625
  N    12.913169  8.910834  2.542322
  N    12.802371 12.109278  2.290325
  N    10.807307  7.821944  1.623675
  N    10.482576 11.678289  1.296645
  N    10.364007  8.445530  5.392995
  N    10.082293 11.876219  5.116774
  S     9.482039  7.896530  4.088050
  S     9.222907 11.543265  3.763442
  S    12.313066  8.254197  1.097670
  S    12.113875 12.012665  0.811911
  S    11.875007  8.948897  5.120328
  S    11.673980 12.345146  4.914357
