16  
    
  C     9.074202  6.932644  2.305432
  C     9.031907 11.098230  2.783908
  C     7.867020  6.562740  1.616562
  C     7.836395 10.611200  2.138256
  N    10.155086  7.004588  1.554615
  N    10.039182 11.286943  1.943775
  N     8.069435  6.388696  0.298640
  N     7.950683 10.378614  0.836532
  N     7.367269  6.782833  4.238943
  N     7.355998 10.816158  4.706551
  S     6.567567  6.463178  2.837915
  S     6.578126 10.271620  3.349534
  S     9.692364  6.615581  0.049935
  S     9.575119 10.731142  0.476981
  S     8.966688  7.193919  4.030061
  S     8.884782 11.334432  4.519307
