16  
    
  C     8.403235  6.883540  2.346390
  C     8.899837 10.230716  2.747108
  C     7.315360  6.381028  1.628843
  C     7.681476  9.944163  2.109083
  N     9.504880  7.081792  1.647253
  N     9.928437 10.353849  1.879698
  N     7.570105  6.190780  0.340625
  N     7.730478  9.940979  0.778760
  N     6.691382  6.445715  4.180777
  N     7.149217 10.280362  4.611829
  S     5.957571  5.956181  2.708205
  S     6.300336  9.891118  3.253624
  S     9.198347  6.624870  0.146092
  S     9.334203 10.230887  0.415083
  S     8.239553  6.951727  4.052151
  S     8.773248 10.552686  4.429602
