16  
    
  C    10.756177  8.288616  2.906929
  C    10.816341 12.005172  3.029006
  C     9.564959  7.840258  2.261646
  C     9.607476 11.492084  2.355980
  N    11.822174  8.495860  2.139618
  N    11.927160 11.985173  2.299891
  N     9.684073  7.647606  0.972463
  N     9.817625 11.259199  1.083847
  N     8.972222  8.123356  4.861549
  N     8.858008 11.823850  4.751375
  S     8.230354  7.673989  3.382452
  S     8.245058 11.200179  3.358239
  S    11.266178  8.000114  0.595458
  S    11.478183 11.496554  0.777226
  S    10.617977  8.375108  4.647351
  S    10.482819 12.134252  4.730526
