16  
    
  C    10.954576  8.156642  3.004583
  C    10.816370 11.652711  2.770175
  C     9.774836  7.429954  2.538154
  C     9.634906 11.141788  2.150634
  N    11.792437  8.405505  1.987170
  N    11.855616 11.819744  1.945203
  N     9.765371  7.172268  1.223857
  N     9.714286 11.090401  0.809681
  N     9.594117  7.756047  5.102790
  N     9.136527 11.537835  4.731042
  S     8.714795  7.035656  3.858880
  S     8.392176 10.871397  3.343663
  S    11.202963  7.737371  0.598771
  S    11.274846 11.510574  0.452957
  S    10.998547  8.476349  4.718417
  S    10.830658 11.664467  4.569867
