16  
    
  C    12.807554  9.247086  3.390736
  C    12.653209 12.989187  3.609603
  C    11.665707  8.591089  2.797075
  C    11.486030 12.477462  2.945054
  N    13.806071  9.493787  2.534716
  N    13.736597 13.159218  2.850237
  N    11.764672  8.446733  1.487480
  N    11.769751 12.100822  1.717148
  N    10.892089  9.273326  5.253194
  N    10.866162 12.616375  5.410030
  S    10.201833  8.655346  3.861788
  S    10.164147 12.148434  3.941920
  S    13.298001  8.949477  1.076961
  S    13.270620 12.612038  1.301156
  S    12.565572  9.484722  5.154153
  S    12.448092 13.221188  5.336964
