16  
    
  C    11.919792  8.643147  3.371510
  C    11.758319 12.049835  3.199977
  C    10.728013  8.045018  2.896656
  C    10.476364 11.722358  2.604389
  N    12.855323  8.751646  2.419532
  N    12.719732 12.336948  2.311057
  N    10.706792  7.764508  1.600456
  N    10.495774 11.562756  1.295970
  N    10.321710  8.562220  5.427302
  N     9.970869 11.964549  5.038932
  S     9.500143  7.942582  4.098556
  S     9.190422 11.482908  3.672703
  S    12.173160  8.307780  0.992914
  S    12.023810 12.023554  0.804637
  S    11.890491  9.049382  5.104284
  S    11.552541 12.364136  4.924229
