16  
    
  C    10.194731  7.359681  2.623210
  C    10.393640 10.922345  2.736540
  C     8.921798  6.916961  2.025142
  C     9.059230 10.962544  2.069746
  N    11.160233  7.534330  1.732505
  N    11.440855 10.979379  1.913877
  N     9.011652  6.686831  0.738870
  N     9.160085 10.922403  0.746108
  N     8.397079  7.343810  4.498349
  N     8.550003 10.834891  4.592899
  S     7.637417  6.843722  3.120796
  S     7.727983 10.961017  3.155706
  S    10.543317  7.121633  0.240470
  S    10.770464 10.986826  0.334853
  S    10.080419  7.516188  4.379835
  S    10.230311 11.071442  4.474057
