16  
    
  C    12.760403  9.119859  3.723531
  C    12.821539 12.541515  3.607948
  C    11.510165  8.583964  3.210697
  C    11.617735 12.079774  2.974541
  N    13.675393  9.368540  2.768917
  N    13.859255 12.635868  2.781864
  N    11.486243  8.468033  1.878256
  N    11.647701 12.063902  1.628738
  N    11.211692  8.463544  5.734155
  N    11.037116 12.277834  5.535227
  S    10.359640  8.207508  4.383649
  S    10.304194 11.893569  4.053861
  S    12.937938  8.858503  1.356370
  S    13.179030 12.598750  1.215316
  S    12.691209  9.245116  5.509866
  S    12.600992 12.714882  5.338412
