16  
    
  C    12.723283  9.238662  3.358840
  C    12.652236 12.959421  3.529060
  C    11.504879  8.761183  2.770441
  C    11.559005 12.392230  2.782017
  N    13.750656  9.244056  2.520146
  N    13.736460 13.141032  2.767361
  N    11.559311  8.595121  1.452179
  N    11.827042 12.179355  1.486628
  N    11.083492  8.903449  5.302630
  N    10.827568 12.536218  5.301726
  S    10.158530  8.523595  3.970143
  S    10.119478 12.020321  3.816788
  S    13.218875  8.769392  1.021656
  S    13.408283 12.663787  1.236052
  S    12.624765  9.497981  5.035174
  S    12.357528 13.250298  5.231213
