16  
    
  C     5.102175  5.311550  1.936955
  C     5.091388  8.759055  1.464555
  C     3.803222  5.049224  1.300528
  C     3.838774  8.299676  0.891999
  N     6.112119  5.301623  1.076390
  N     6.139821  8.734201  0.629909
  N     3.925591  4.557813  0.052410
  N     3.871092  8.115603 -0.434347
  N     3.327693  5.790726  3.712569
  N     3.408156  8.752672  3.394210
  S     2.533246  5.207975  2.453962
  S     2.494909  8.344804  2.032538
  S     5.529316  4.646597 -0.301665
  S     5.473090  8.379829 -0.881081
  S     4.968173  5.741122  3.626626
  S     5.037382  8.953515  3.222701
