16  
    
  C     8.683573  6.963873  2.311122
  C     9.015023 10.308291  2.641621
  C     7.554843  6.389882  1.641683
  C     7.750848 10.027356  2.019199
  N     9.754367  7.125349  1.524841
  N    10.016471 10.356801  1.798793
  N     7.604449  6.315983  0.313340
  N     7.763165  9.949958  0.670184
  N     6.754264  6.614745  4.049866
  N     7.212127 10.308810  4.528445
  S     6.145001  6.060479  2.598022
  S     6.415131  9.866324  3.128052
  S     9.194330  6.721139 -0.064544
  S     9.332188 10.145147  0.288384
  S     8.349048  7.083427  4.068275
  S     8.863202 10.586037  4.382079
