16  
    
  C     6.868917  5.635677  1.809072
  C     7.198717 10.001960  2.432314
  C     5.716541  5.143657  1.031118
  C     5.914728  9.513490  1.838680
  N     8.028306  5.774255  1.169514
  N     8.229909 10.148448  1.606477
  N     6.085579  4.725688 -0.169307
  N     6.096131  9.257059  0.554025
  N     4.771535  6.062467  3.262626
  N     5.608697  9.784093  4.396447
  S     4.204932  5.090422  1.971171
  S     4.645087  9.326455  3.057285
  S     7.690929  5.148131 -0.374259
  S     7.617521  9.728536  0.099229
  S     6.387096  6.193828  3.436369
  S     7.148220 10.210912  4.157919
