16  
    
  C    12.187943  9.192863  3.562965
  C    12.478995 12.850465  3.490884
  C    11.215196  8.444368  2.878564
  C    11.264286 12.338345  2.930656
  N    13.208374  9.675451  2.846448
  N    13.437600 12.997313  2.605764
  N    11.507658  8.427305  1.564159
  N    11.270676 12.111420  1.616448
  N    10.632603  8.384878  5.462057
  N    10.846586 12.657442  5.502473
  S     9.925365  7.911775  3.929249
  S     9.932366 12.205251  4.174736
  S    12.935187  9.177602  1.303897
  S    12.852218 12.553862  1.113754
  S    12.115902  9.206890  5.287858
  S    12.525335 12.925168  5.213132
