16  
    
  C     7.654800  6.268098  2.201576
  C     7.801686 10.113061  2.435840
  C     6.396104  5.882484  1.647890
  C     6.654955  9.480937  1.793857
  N     8.649080  6.441819  1.337461
  N     8.784846 10.521723  1.623557
  N     6.403256  5.781956  0.332137
  N     6.808502  9.311657  0.502382
  N     5.944285  6.156566  4.213962
  N     6.090237  9.505770  4.342840
  S     5.173455  5.567179  2.835867
  S     5.325359  9.201790  2.889224
  S     7.913479  6.107943 -0.171881
  S     8.279815  9.896384  0.092533
  S     7.533576  6.399648  3.969961
  S     7.605545 10.212374  4.188182
