16  
    
  C    12.295448  9.236048  3.509661
  C    12.449665 12.722641  3.495466
  C    11.224101  8.617749  2.781115
  C    11.233459 12.233932  2.956605
  N    13.282334  9.733537  2.748372
  N    13.398842 12.895027  2.608604
  N    11.454887  8.430941  1.469451
  N    11.227565 12.015370  1.639732
  N    10.595652  8.354079  5.249951
  N    10.939940 12.538608  5.481778
  S     9.992379  7.934461  3.820425
  S     9.991336 12.170274  4.163924
  S    12.948367  9.206058  1.200711
  S    12.699266 12.513305  1.134715
  S    12.035744  9.182039  5.282761
  S    12.448398 13.034309  5.154386
