16  
    
  C     4.242217  4.908569  1.459478
  C     4.239683  8.358443  1.382854
  C     2.998020  4.524705  0.837353
  C     3.002324  7.997713  0.719024
  N     5.281582  4.925315  0.634192
  N     5.257422  8.457248  0.561644
  N     3.110219  4.382001 -0.492116
  N     3.115438  7.681389 -0.563311
  N     2.428304  4.741340  3.350918
  N     2.428228  8.304286  3.230407
  S     1.641710  4.506410  1.943520
  S     1.671839  7.899739  1.835537
  S     4.666877  4.643183 -0.888705
  S     4.687258  8.061487 -0.963894
  S     4.095328  4.990339  3.257942
  S     4.044999  8.640510  3.076064
