16  
    
  C     8.116577  6.541617  2.673075
  C     8.666518 10.461246  2.761839
  C     6.951786  6.132200  1.897197
  C     7.465623  9.998930  2.086309
  N     9.199950  6.814164  1.949411
  N     9.698405 10.566773  1.946483
  N     7.246811  5.906285  0.612712
  N     7.676853  9.697378  0.797779
  N     6.199042  6.352148  4.381697
  N     6.888905 10.293436  4.632099
  S     5.570160  5.809472  2.910272
  S     6.090553  9.963837  3.219825
  S     8.850945  6.460844  0.412093
  S     9.256775 10.141173  0.480721
  S     7.796073  6.789420  4.328101
  S     8.523847 10.614814  4.502000
