16  
    
  C    12.718514  8.988482  3.823848
  C    12.758239 12.480595  3.815663
  C    11.514430  8.430467  3.244604
  C    11.536195 12.120155  3.067287
  N    13.724713  9.161066  2.969961
  N    13.736673 12.870072  3.023470
  N    11.572324  8.451409  1.919464
  N    11.667357 12.125322  1.755728
  N    11.128834  8.437901  5.853318
  N    10.929180 12.350415  5.584316
  S    10.241594  8.083489  4.447716
  S    10.134067 11.827922  4.113531
  S    13.047117  8.978463  1.431456
  S    13.292978 12.541370  1.484549
  S    12.672895  9.233281  5.518733
  S    12.555912 12.688654  5.495085
