16  
    
  C    11.389922  8.690156  3.303551
  C    11.502790 12.311137  3.348242
  C    10.215408  7.977274  2.755258
  C    10.405115 11.696933  2.660689
  N    12.447135  8.805343  2.488074
  N    12.494256 12.603897  2.522150
  N    10.394494  7.649489  1.495211
  N    10.534455 11.576569  1.352023
  N     9.650100  8.506399  5.175891
  N     9.576802 11.932853  5.142302
  S     8.920800  7.679967  3.896078
  S     8.962936 11.536825  3.623612
  S    11.871060  8.164334  1.045321
  S    12.064915 12.043590  0.986012
  S    11.111277  9.197528  4.957580
  S    11.082256 12.679286  4.995044
