16  
    
  C     5.570624  5.469637  1.938784
  C     5.439631  8.924016  1.769209
  C     4.327317  4.928185  1.401692
  C     4.299371  8.417421  1.056381
  N     6.483408  5.621580  0.979121
  N     6.486524  9.198047  0.992045
  N     4.299120  4.783108  0.077876
  N     4.510942  8.149992 -0.218157
  N     4.036813  5.101676  4.013841
  N     3.494371  8.875391  3.509977
  S     3.127845  4.706733  2.627159
  S     2.955640  8.103055  2.095225
  S     5.760603  5.292839 -0.489281
  S     6.089565  8.727833 -0.548571
  S     5.703247  5.515695  3.689033
  S     5.134686  9.108766  3.475061
