16  
    
  C     7.595319  6.290563  2.255022
  C     7.686676 10.075516  2.441365
  C     6.327157  5.815299  1.740121
  C     6.558191  9.577943  1.735042
  N     8.588009  6.419478  1.366351
  N     8.798650 10.294370  1.737872
  N     6.298361  5.808999  0.399924
  N     6.782341  9.419375  0.411183
  N     6.037601  6.394728  4.275729
  N     6.007485  9.619957  4.291567
  S     5.069599  5.759102  2.936810
  S     5.221703  9.284802  2.839603
  S     7.858833  6.214200 -0.120682
  S     8.316370  9.920035  0.147637
  S     7.697264  6.550094  3.966530
  S     7.547262 10.305150  4.153197
