16  
    
  C     9.534426  7.650149  2.634689
  C    10.136028 11.279524  2.598516
  C     8.482727  6.859428  2.105988
  C     8.918686 10.918819  1.996080
  N    10.540696  7.833702  1.790220
  N    11.153632 11.381457  1.740106
  N     8.686075  6.437491  0.859043
  N     8.912083 10.752972  0.668795
  N     7.854633  7.337851  4.569522
  N     8.495696 11.009229  4.541480
  S     7.132499  6.579190  3.242983
  S     7.614493 10.723319  3.163274
  S    10.181991  7.000685  0.431885
  S    10.481960 11.047574  0.250570
  S     9.342089  7.965290  4.285901
  S    10.064057 11.610291  4.302815
