16  
    
  C    10.523046  7.276114  2.740726
  C    10.314255 11.236234  2.660597
  C     9.202760  7.316912  2.189922
  C     9.024590 10.871557  2.052107
  N    11.509941  7.195683  1.815989
  N    11.380093 11.257260  1.831695
  N     9.208443  7.257459  0.852517
  N     9.118154 10.677576  0.717670
  N     8.787876  7.490239  4.740365
  N     8.547336 11.160819  4.589085
  S     7.977829  7.664634  3.279040
  S     7.748616 10.979934  3.178525
  S    10.764698  7.220130  0.351492
  S    10.755094 10.909024  0.363452
  S    10.442061  7.421139  4.479676
  S    10.192215 11.455210  4.395694
