16  
    
  C     9.952414  7.624873  2.649083
  C     9.873301 11.320098  2.938408
  C     8.693565  7.391328  2.046062
  C     8.789456 10.736294  2.278479
  N    10.927544  7.669624  1.744202
  N    10.931638 11.569128  2.202069
  N     8.691963  7.253659  0.740770
  N     8.964791 10.560666  0.986453
  N     8.137481  7.393222  4.561189
  N     8.021809 11.006038  4.713242
  S     7.374893  7.196690  3.120436
  S     7.379012 10.454250  3.281252
  S    10.243870  7.557909  0.248777
  S    10.472929 11.120498  0.673600
  S     9.787052  7.773984  4.447162
  S     9.622010 11.416959  4.686128
