16  
    
  C     9.915957  7.658308  2.672202
  C     9.896773 11.323519  2.998540
  C     8.631979  7.325004  2.033116
  C     8.760893 10.669738  2.296305
  N    10.923784  7.699235  1.800088
  N    10.928507 11.597566  2.181201
  N     8.658187  7.227801  0.699877
  N     8.963926 10.484633  1.003159
  N     8.210828  7.419947  4.529749
  N     8.054385 10.846042  4.730222
  S     7.338953  7.175330  3.137306
  S     7.378726 10.414983  3.282100
  S    10.239316  7.532185  0.244589
  S    10.479975 11.115259  0.667959
  S     9.801662  7.752742  4.418185
  S     9.604125 11.444844  4.671266
