16  
    
  C     8.530625  6.684957  2.304179
  C     8.164654 10.371920  2.608168
  C     7.324441  6.174376  1.784583
  C     7.124349  9.756524  1.880417
  N     9.497748  6.761431  1.415326
  N     9.305949 10.464901  1.914026
  N     7.308718  5.886789  0.510618
  N     7.460970  9.416288  0.651888
  N     6.822755  6.425402  4.272485
  N     6.286362  9.759414  4.272525
  S     5.993945  5.955290  2.860680
  S     5.780995  9.186867  2.800081
  S     8.852905  6.322577 -0.051149
  S     9.051256  9.888328  0.414931
  S     8.424474  7.035897  4.061141
  S     7.749362 10.539089  4.331442
