16  
    
  C     8.007831  6.653154  2.680189
  C     8.705471 10.301767  2.663666
  C     6.865006  6.240355  1.950578
  C     7.457320  9.885832  2.081567
  N     9.107278  6.851070  1.957566
  N     9.718404 10.365330  1.796220
  N     7.044665  5.920020  0.681059
  N     7.495699  9.670794  0.779682
  N     6.068523  6.238458  4.391254
  N     6.927282 10.192453  4.550503
  S     5.508828  5.859031  2.879974
  S     6.077060  9.837220  3.138950
  S     8.654943  6.310631  0.409533
  S     9.036743 10.017543  0.332706
  S     7.661150  6.787478  4.386440
  S     8.471870 10.774426  4.365839
