16  
    
  C     4.291527  5.009061  1.303754
  C     4.399551  8.293105  1.302837
  C     3.075159  4.613590  0.640725
  C     3.134646  8.036238  0.659923
  N     5.331795  4.926021  0.478615
  N     5.439163  8.432958  0.524533
  N     3.133948  4.507923 -0.673107
  N     3.223674  7.758050 -0.629134
  N     2.510080  4.856964  3.125669
  N     2.657948  8.172922  3.137989
  S     1.720132  4.584438  1.712056
  S     1.876940  7.741213  1.773226
  S     4.682408  4.806959 -1.081381
  S     4.814385  8.047195 -1.022652
  S     4.139135  5.099061  3.009466
  S     4.259921  8.618206  2.974749
