16  
    
  C    11.886316  8.421332  3.222428
  C    11.422432 12.097539  3.517350
  C    10.648970  8.188108  2.556841
  C    10.295955 11.482662  2.802484
  N    12.889457  8.696959  2.423804
  N    12.431674 12.346080  2.699472
  N    10.734713  8.148763  1.221673
  N    10.452287 11.428292  1.468006
  N    10.165292  8.078795  5.140149
  N     9.707617 11.701430  5.312607
  S     9.346016  8.121043  3.720927
  S     8.985703 11.105259  3.968284
  S    12.274656  8.601522  0.893325
  S    12.000605 12.023285  1.169992
  S    11.840639  8.431272  4.979520
  S    11.275637 12.210259  5.252028
