16  
    
  C     8.736242  7.351663  2.639981
  C     9.019791 11.091262  2.206011
  C     7.581811  6.599008  2.129194
  C     7.826681 10.630764  1.481113
  N     9.680596  7.627420  1.720969
  N    10.047688 11.395560  1.373343
  N     7.534753  6.476426  0.807229
  N     7.963804 10.555995  0.162113
  N     6.994392  6.755948  4.632682
  N     7.229282 10.382657  3.998143
  S     6.275830  6.250210  3.226510
  S     6.467972 10.250231  2.522567
  S     8.958283  7.103048  0.219339
  S     9.466822 10.976494 -0.209726
  S     8.563394  7.381281  4.431426
  S     8.820579 10.916071  3.942145
