16  
    
  C     4.555282  5.062165  1.613601
  C     4.341658  8.563515  1.487179
  C     3.307024  4.629253  1.031837
  C     3.146946  7.997964  0.920522
  N     5.554796  5.229887  0.761168
  N     5.357178  8.675632  0.650225
  N     3.341054  4.584651 -0.288240
  N     3.257037  7.660519 -0.355468
  N     2.829261  4.828311  3.524146
  N     2.611727  8.475210  3.407768
  S     1.983690  4.564916  2.108298
  S     1.796427  7.950703  1.993817
  S     4.907995  4.855002 -0.692424
  S     4.818674  8.085520 -0.755132
  S     4.325534  5.507145  3.293921
  S     4.217179  8.878522  3.165067
