16  
    
  C     9.799948  7.440922  2.455971
  C    10.413290 11.194479  2.578670
  C     8.589518  6.876971  1.896749
  C     9.151646 10.910445  1.972079
  N    10.880607  7.533767  1.661291
  N    11.453547 11.210194  1.739324
  N     8.753178  6.614752  0.596436
  N     9.214080 10.906068  0.651857
  N     8.297390  7.186996  4.452518
  N     8.629113 11.106372  4.482351
  S     7.457520  6.556806  3.213469
  S     7.800750 10.891053  3.101988
  S    10.336015  7.060872  0.175793
  S    10.807824 11.087455  0.228089
  S     9.787612  7.838108  4.153962
  S    10.282927 11.346583  4.353990
