16  
    
  C     8.192131  6.526504  2.653526
  C     8.673937 10.493270  2.788351
  C     7.073168  6.119355  1.910261
  C     7.482197 10.069064  2.133902
  N     9.259115  6.814470  1.924383
  N     9.749014 10.639718  2.004950
  N     7.318346  5.919733  0.622867
  N     7.676965  9.752166  0.867549
  N     6.249794  6.333644  4.340306
  N     6.886571 10.332821  4.626034
  S     5.673850  5.837816  2.848287
  S     6.108046  9.956892  3.203056
  S     8.826125  6.482214  0.374900
  S     9.266784 10.130376  0.465950
  S     7.803440  6.807635  4.336533
  S     8.559894 10.560544  4.526907
