16  
    
  C     9.804918  7.446260  2.458571
  C    10.416438 11.187375  2.583605
  C     8.587750  6.886033  1.898581
  C     9.144529 10.918107  1.971391
  N    10.881763  7.532844  1.657916
  N    11.457575 11.201683  1.736560
  N     8.762858  6.620331  0.598240
  N     9.213206 10.913892  0.647014
  N     8.302433  7.187887  4.453769
  N     8.629691 11.110409  4.485554
  S     7.460459  6.556351  3.212894
  S     7.798735 10.888654  3.102651
  S    10.341513  7.059147  0.176193
  S    10.809411 11.084471  0.233785
  S     9.793766  7.831990  4.153513
  S    10.283060 11.339628  4.355593
