16  
    
  C     9.634442  7.355974  2.855391
  C     9.725392 10.942501  2.835321
  C     8.495189  6.881080  2.090016
  C     8.468944 10.545911  2.170935
  N    10.707840  7.676634  2.162418
  N    10.721406 11.241796  2.010980
  N     8.780313  6.859103  0.786894
  N     8.631831 10.448456  0.852886
  N     7.830596  6.818194  4.631872
  N     7.896058 10.759323  4.709404
  S     7.159849  6.467902  3.144684
  S     7.199116 10.220095  3.280997
  S    10.347762  7.418611  0.588741
  S    10.150494 10.926055  0.460395
  S     9.341208  7.538546  4.561324
  S     9.524304 11.138907  4.567801
