16  
    
  C    12.607944  8.853767  3.695990
  C    12.394110 12.782290  3.886331
  C    11.402771  8.464043  3.016002
  C    11.327217 12.085395  3.230874
  N    13.632595  9.063508  2.889319
  N    13.511020 13.035047  3.159268
  N    11.490416  8.247416  1.691167
  N    11.546725 12.028649  1.923630
  N    11.069893  8.484381  5.591207
  N    10.560659 12.396203  5.716462
  S    10.157926  8.186773  4.218716
  S     9.921455 11.838289  4.265312
  S    13.145132  8.668292  1.357634
  S    13.069359 12.657311  1.620058
  S    12.568262  9.108528  5.404775
  S    12.052441 13.089630  5.579906
