16  
    
  C    12.380858  9.121215  3.319368
  C    12.281177 12.830610  3.416500
  C    11.140237  8.629353  2.819979
  C    11.184236 12.116721  2.793421
  N    13.351185  9.196799  2.411802
  N    13.330534 12.963418  2.616373
  N    11.239202  8.291765  1.506300
  N    11.342062 11.796475  1.507049
  N    10.801067  8.993840  5.397320
  N    10.360328 12.667066  5.226832
  S     9.885397  8.605016  4.060491
  S     9.703846 12.096928  3.745578
  S    12.748057  8.781877  0.960318
  S    12.928686 12.211050  1.218306
  S    12.407505  9.578076  4.980589
  S    11.951275 13.055409  5.082696
