16  
    
  C    10.968846  7.642081  3.145623
  C    11.201494 11.763374  2.814589
  C     9.747602  7.468058  2.483486
  C     9.974555 11.186525  2.228562
  N    12.019226  7.831058  2.343321
  N    12.193317 11.916905  1.942304
  N     9.838172  7.556373  1.137116
  N    10.105399 10.806544  0.945189
  N     9.191485  7.686879  4.962253
  N     9.518903 11.777343  4.657672
  S     8.376560  7.200444  3.513503
  S     8.802630 10.903026  3.454851
  S    11.444378  7.669913  0.785204
  S    11.619167 11.393628  0.519162
  S    10.818315  7.647390  4.887710
  S    11.132030 12.122693  4.564773
