16  
    
  C    12.766595  9.299052  3.456574
  C    12.717847 12.847576  3.596233
  C    11.590320  8.756088  2.791934
  C    11.536103 12.242282  3.025903
  N    13.827248  9.433835  2.684577
  N    13.750204 13.056687  2.790051
  N    11.820747  8.415338  1.518835
  N    11.673808 12.140418  1.700216
  N    10.996260  9.236073  5.171596
  N    10.974441 12.675837  5.546265
  S    10.278792  8.605170  3.882806
  S    10.192189 12.330486  4.114147
  S    13.377385  8.995392  1.187767
  S    13.223931 12.596450  1.319296
  S    12.592346  9.606508  5.114352
  S    12.519023 13.185035  5.307748
