16  
    
  C    12.700312  8.792054  3.554229
  C    12.233921 13.049798  3.770313
  C    11.433327  8.420409  2.945380
  C    11.167782 12.279931  3.128015
  N    13.658731  9.071435  2.666680
  N    13.284206 13.128667  2.932400
  N    11.448646  8.322092  1.623023
  N    11.280078 11.993966  1.827290
  N    10.860075  8.686954  5.385084
  N    10.515044 12.564849  5.592841
  S    10.175182  8.236726  3.998900
  S     9.967322 11.727776  4.221941
  S    12.998080  8.740035  1.149222
  S    12.808629 12.595512  1.476676
  S    12.460716  9.109894  5.264750
  S    12.031532 13.105447  5.479048
