16  
    
  C     4.758809  4.839666  1.907509
  C     4.684995  8.987536  1.713428
  C     3.504818  4.654978  1.216680
  C     3.422364  8.517900  1.114991
  N     5.847836  5.070795  1.154606
  N     5.658098  9.234783  0.839589
  N     3.707467  4.560313 -0.091235
  N     3.393245  8.561261 -0.210548
  N     3.050998  4.747183  3.781363
  N     3.149384  8.265412  3.664631
  S     2.155780  4.405539  2.415733
  S     2.254150  8.057725  2.298386
  S     5.331428  4.733952 -0.388427
  S     4.948395  9.014470 -0.698403
  S     4.688032  4.973011  3.640316
  S     4.651484  8.834836  3.441381
