16  
    
  C     6.855696  5.737647  1.599821
  C     7.269967 10.039554  2.481972
  C     5.669004  5.175525  0.941522
  C     5.988632  9.521059  1.957921
  N     7.886396  5.799069  0.764436
  N     8.221263 10.058008  1.523036
  N     5.917587  4.664861 -0.265689
  N     6.001482  9.162852  0.670090
  N     4.945929  5.753466  3.340956
  N     5.648291  9.681391  4.449055
  S     4.304719  4.948158  2.046283
  S     4.732285  9.479205  3.117018
  S     7.470974  5.111540 -0.690115
  S     7.583111  9.552095  0.119729
  S     6.539940  6.395564  3.202639
  S     7.169244 10.292910  4.232751
