16  
    
  C     3.507738  4.440244  1.494131
  C     3.560927  8.418073  1.192151
  C     2.304566  3.949702  0.771656
  C     2.241397  7.989505  0.676377
  N     4.523298  4.808964  0.710708
  N     4.514629  8.527511  0.278295
  N     2.499528  3.833337 -0.549366
  N     2.234090  7.993752 -0.656534
  N     1.744503  4.335790  3.338001
  N     1.940393  8.137203  3.162121
  S     1.077525  3.505445  2.031770
  S     0.993557  7.816368  1.876257
  S     4.159182  4.280168 -0.779613
  S     3.787598  8.317841 -1.183258
  S     3.358869  4.757828  3.185271
  S     3.532426  8.535995  2.938146
