16  
    
  C     8.743178  7.339112  2.647206
  C     9.038995 11.088015  2.200984
  C     7.580989  6.577916  2.111313
  C     7.836810 10.614784  1.472767
  N     9.670070  7.634206  1.717348
  N    10.039989 11.375403  1.354972
  N     7.545502  6.493680  0.789579
  N     7.956335 10.558760  0.151058
  N     7.000296  6.731443  4.617498
  N     7.230211 10.384855  4.004453
  S     6.269367  6.263420  3.210326
  S     6.467365 10.262155  2.518545
  S     8.956578  7.128213  0.222606
  S     9.479780 10.965660 -0.210752
  S     8.560247  7.377587  4.422346
  S     8.825090 10.908820  3.934840
