16  
    
  C     4.008908  4.556677  1.748854
  C     3.814023  8.451591  1.656373
  C     2.712497  4.388979  1.153017
  C     2.687190  7.932111  0.975434
  N     4.961344  4.662053  0.812642
  N     4.965772  8.394310  1.010400
  N     2.727365  4.092145 -0.130077
  N     2.851477  7.760274 -0.335322
  N     2.093171  4.786973  3.551494
  N     1.914940  8.250625  3.422601
  S     1.329656  4.569923  2.096274
  S     1.277872  7.837191  1.958335
  S     4.246310  4.185344 -0.664711
  S     4.501815  7.961342 -0.564677
  S     3.824115  4.963823  3.466353
  S     3.524587  8.847442  3.353544
