16  
    
  C     7.866422  6.256154  2.149240
  C     8.082750 10.447589  2.187873
  C     6.678084  5.761508  1.508056
  C     6.942213  9.825997  1.558502
  N     8.862174  6.586334  1.342435
  N     9.087352 10.793796  1.388407
  N     6.781564  5.817502  0.189422
  N     7.116157  9.606452  0.241320
  N     6.254633  5.721456  4.069125
  N     6.275766 10.125829  4.037567
  S     5.313958  5.492326  2.634200
  S     5.530354  9.698302  2.615923
  S     8.260449  6.310009 -0.179720
  S     8.598851 10.125851 -0.146692
  S     7.817696  6.306055  3.880536
  S     7.900945 10.629499  3.918975
