16  
    
  C    12.054662  8.514028  3.604082
  C    12.117605 12.043717  3.315539
  C    10.893300  8.190706  2.855815
  C    10.925604 11.525634  2.712769
  N    13.160166  8.796848  2.910145
  N    13.187995 12.185977  2.544606
  N    11.143161  8.120555  1.555919
  N    11.045352 11.365493  1.399884
  N    10.096907  8.342258  5.361384
  N    10.297603 11.965536  5.243905
  S     9.448135  7.997806  3.856892
  S     9.544020 11.366502  3.800396
  S    12.765206  8.399614  1.321957
  S    12.609188 11.947413  1.047721
  S    11.754854  8.723013  5.288243
  S    11.915421 12.457608  4.971853
