16  
    
  C     9.577328  7.349329  2.906608
  C     9.679134 10.956873  2.785072
  C     8.459762  6.794843  2.124473
  C     8.412101 10.438385  2.158124
  N    10.697669  7.639014  2.260710
  N    10.679403 11.165320  1.940199
  N     8.743827  6.790433  0.825898
  N     8.513628 10.402891  0.841815
  N     7.781729  6.693762  4.632500
  N     7.917684 10.710480  4.625813
  S     7.150219  6.284870  3.145955
  S     7.120689 10.239848  3.240068
  S    10.299296  7.389070  0.650579
  S    10.045587 10.889960  0.421018
  S     9.275857  7.428888  4.637875
  S     9.527623 11.060930  4.501907
