16  
    
  C     9.038146  7.202113  2.558878
  C     8.821681 11.138898  2.341582
  C     7.804030  6.609360  2.032314
  C     7.669814 10.475139  1.724506
  N     9.998551  7.306646  1.641622
  N     9.768340 11.426669  1.453325
  N     7.968016  6.198737  0.766172
  N     7.856586 10.137199  0.441846
  N     7.483416  7.010631  4.630026
  N     7.205919 10.626804  4.259245
  S     6.682457  6.301981  3.393598
  S     6.415364 10.128359  2.866924
  S     9.483303  6.649835  0.252355
  S     9.341782 10.871652  0.027553
  S     9.094105  7.419578  4.277696
  S     8.696639 11.250852  4.041256
