16  
    
  C    12.301861  9.148479  3.637621
  C    12.491338 12.879275  3.495010
  C    11.223011  8.484761  2.914152
  C    11.256390 12.332294  2.942970
  N    13.260226  9.634914  2.882056
  N    13.479364 13.059152  2.608629
  N    11.476055  8.328173  1.621742
  N    11.318154 12.253149  1.612444
  N    10.604474  8.379294  5.468229
  N    10.867713 12.715547  5.485806
  S     9.932942  7.926055  4.000142
  S     9.983239 12.219727  4.146451
  S    12.876645  9.155786  1.355875
  S    12.872453 12.545427  1.111852
  S    12.102247  9.216305  5.292468
  S    12.487483 12.881102  5.267888
