16  
    
  C     5.852367  5.506925  2.149245
  C     5.902736  9.078516  1.840955
  C     4.562473  5.384989  1.486688
  C     4.649944  8.772540  1.141658
  N     6.906130  5.469320  1.353404
  N     6.985830  9.045832  1.093132
  N     4.680331  5.199130  0.174081
  N     4.840652  8.616244 -0.164194
  N     4.021571  5.763965  3.993231
  N     3.981526  9.228114  3.526537
  S     3.191458  5.587775  2.535503
  S     3.236038  8.813075  2.142876
  S     6.273692  5.308258 -0.180236
  S     6.509137  8.821073 -0.459349
  S     5.644853  5.860761  3.802050
  S     5.644279  9.348413  3.490251
