16  
    
  C     9.169931  6.748212  2.351061
  C     9.140639 10.813981  2.985142
  C     7.966799  6.269755  1.770771
  C     7.910294 10.421316  2.423067
  N    10.252957  6.795575  1.562485
  N    10.152193 10.910629  2.125313
  N     8.199682  5.744589  0.565285
  N     7.987272  9.982201  1.147157
  N     7.414128  7.028336  4.163946
  N     7.386836 10.981910  4.845984
  S     6.600976  6.317695  2.905352
  S     6.562522 10.562061  3.468239
  S     9.795933  6.094072  0.188616
  S     9.589118 10.396557  0.688695
  S     9.091832  7.241005  4.005879
  S     9.015499 11.187956  4.714295
