16  
    
  C     3.599284  4.559238  1.585215
  C     3.735508  8.359857  1.567994
  C     2.500158  3.882377  1.023470
  C     2.522109  8.079980  0.872482
  N     4.507958  4.899927  0.684640
  N     4.765391  8.601069  0.759742
  N     2.486558  3.795597 -0.308471
  N     2.586922  8.040859 -0.451628
  N     1.920040  3.949961  3.490270
  N     1.984087  8.041355  3.364559
  S     1.271214  3.443639  2.102971
  S     1.238328  7.719086  1.962656
  S     3.891727  4.383725 -0.817507
  S     4.154048  8.419817 -0.788517
  S     3.439370  4.703545  3.374624
  S     3.590870  8.479072  3.313372
