16  
    
  C     4.591330  5.141312  1.750088
  C     4.218581  8.658497  1.550359
  C     3.376004  4.755152  1.097565
  C     3.029014  8.176119  0.883144
  N     5.581737  5.296552  0.886034
  N     5.261800  8.896440  0.791103
  N     3.416412  4.490051 -0.187760
  N     3.166365  8.036408 -0.417349
  N     2.645634  5.137132  3.498226
  N     2.474972  8.328987  3.298785
  S     1.956626  4.684470  2.060523
  S     1.725003  7.785927  1.955075
  S     4.958760  4.707073 -0.592680
  S     4.731973  8.503706 -0.771666
  S     4.298706  5.312790  3.453781
  S     4.071612  8.805877  3.259441
