16  
    
  C    11.892007  8.619812  3.312588
  C    11.496667 12.339292  3.124213
  C    10.610901  8.119168  2.882906
  C    10.375625 11.726705  2.522264
  N    12.812152  8.821696  2.392307
  N    12.537208 12.628130  2.353752
  N    10.610309  7.896144  1.569104
  N    10.622572 11.438634  1.228360
  N    10.350404  8.609467  5.412895
  N     9.837319 11.996113  5.148601
  S     9.417726  8.036365  4.152414
  S     9.081984 11.346469  3.696583
  S    12.136177  8.282828  1.023867
  S    12.123311 12.011703  0.851652
  S    11.897223  9.096975  4.957260
  S    11.490224 12.388543  4.851819
