16  
    
  C    11.914493  8.644268  3.366681
  C    11.748276 12.054212  3.198293
  C    10.720538  8.043897  2.895085
  C    10.474013 11.717449  2.603130
  N    12.853717  8.745932  2.421658
  N    12.707344 12.350126  2.312059
  N    10.706116  7.764864  1.602367
  N    10.486879 11.560611  1.288035
  N    10.328033  8.567316  5.423443
  N     9.970429 11.967168  5.028255
  S     9.497965  7.943975  4.099045
  S     9.193141 11.481649  3.675322
  S    12.170099  8.309818  0.989594
  S    12.029462 12.021853  0.807173
  S    11.891082  9.052416  5.103133
  S    11.548252 12.364199  4.926661
