16  
    
  C     4.540990  5.169818  1.845100
  C     4.634874  8.504911  1.453044
  C     3.381501  4.600065  1.204053
  C     3.391359  8.137508  0.732949
  N     5.623671  5.286130  1.042705
  N     5.691834  8.648481  0.661357
  N     3.522135  4.469572 -0.103385
  N     3.613521  7.851825 -0.550415
  N     2.719874  4.711377  3.686708
  N     2.799105  8.377006  3.284571
  S     1.999705  4.511723  2.230483
  S     2.032460  7.958804  1.834136
  S     5.000148  5.020671 -0.533442
  S     5.218365  8.170825 -0.906376
  S     4.289099  5.310809  3.641537
  S     4.393530  8.891730  3.123323
