16  
    
  C     8.058293  6.327503  2.263922
  C     7.979292 10.166645  2.265552
  C     6.862490  5.949443  1.622390
  C     6.766191  9.758463  1.670807
  N     9.110883  6.546087  1.495549
  N     9.051212 10.219843  1.470938
  N     6.974175  5.726423  0.314886
  N     6.859402  9.482442  0.368754
  N     6.356003  6.199132  4.184549
  N     6.335990  9.871929  4.243977
  S     5.540637  5.793955  2.780980
  S     5.503822  9.472580  2.836261
  S     8.591082  6.221463 -0.042686
  S     8.507331  9.854416 -0.049034
  S     7.983945  6.560963  3.969629
  S     7.893901 10.361524  3.995194
