16  
    
  C     5.821974  5.467700  2.103804
  C     5.865155  8.955131  1.924878
  C     4.564935  5.299737  1.437951
  C     4.662556  8.664885  1.176382
  N     6.872540  5.477062  1.304612
  N     6.957231  9.118906  1.191662
  N     4.632263  5.084510  0.124797
  N     4.869768  8.534454 -0.149519
  N     3.946286  5.614323  3.906448
  N     3.985703  9.137297  3.712369
  S     3.236958  5.557099  2.440572
  S     3.226317  8.809294  2.213273
  S     6.250462  5.283977 -0.227990
  S     6.452450  8.805392 -0.386656
  S     5.621460  5.904191  3.797415
  S     5.660507  9.269420  3.609543
