16  
    
  C     8.881559  6.975028  2.229842
  C     8.997135 10.544456  2.450951
  C     7.678652  6.460683  1.573612
  C     7.766415 10.053322  1.822502
  N     9.903496  7.180308  1.427826
  N     9.998401 10.680419  1.578133
  N     7.887012  6.366672  0.264787
  N     7.878649  9.836392  0.520092
  N     7.168351  6.717031  4.099450
  N     7.311181 10.338568  4.310965
  S     6.352328  6.281888  2.734707
  S     6.427348 10.088690  2.902412
  S     9.459236  6.784761 -0.069454
  S     9.479624 10.202838  0.103697
  S     8.770128  7.231023  3.895269
  S     8.906800 10.747311  4.123405
