16  
    
  C     4.237274  4.782178  1.319592
  C     4.350444  8.438092  1.313237
  C     2.968357  4.608237  0.660329
  C     3.098837  7.951428  0.681593
  N     5.303970  5.058024  0.547676
  N     5.359739  8.375611  0.444156
  N     3.127853  4.448161 -0.646283
  N     3.196311  7.850449 -0.650436
  N     2.494564  4.889365  3.245947
  N     2.595797  8.225336  3.230341
  S     1.654058  4.562441  1.844897
  S     1.784566  7.773979  1.801094
  S     4.766396  4.772685 -0.959166
  S     4.794002  8.002623 -1.035331
  S     4.150174  5.025598  2.998387
  S     4.216989  8.650474  3.022859
