16  
    
  C    11.090376  8.183344  3.082901
  C    11.487226 11.740633  3.235563
  C     9.872518  7.577450  2.644163
  C    10.253918 11.489795  2.512084
  N    12.088276  8.348158  2.190877
  N    12.543319 11.741248  2.428446
  N     9.929767  7.157196  1.392979
  N    10.385137 11.363106  1.194312
  N     9.505024  8.064963  5.127393
  N     9.669648 11.473660  4.958695
  S     8.600713  7.474932  3.884330
  S     8.836227 11.382804  3.576413
  S    11.422897  7.646905  0.786224
  S    12.044552 11.354354  0.900072
  S    11.122374  8.448970  4.813098
  S    11.243641 11.855192  4.922741
