16  
    
  C    10.745308  8.336778  2.928020
  C    10.766747 11.978191  3.054704
  C     9.522150  7.862720  2.289681
  C     9.633811 11.440031  2.366502
  N    11.800610  8.470592  2.112224
  N    11.884938 11.994115  2.318061
  N     9.693339  7.603803  0.970899
  N     9.861387 11.266902  1.055220
  N     8.964366  8.100881  4.860165
  N     8.838469 11.809852  4.762372
  S     8.226669  7.683947  3.382178
  S     8.234761 11.235244  3.340615
  S    11.218580  8.016384  0.614278
  S    11.461107 11.481933  0.796618
  S    10.604423  8.411113  4.682760
  S    10.494189 12.125931  4.725248
