16  
    
  C     6.571631  5.738786  2.001716
  C     6.623894  9.425528  1.873116
  C     5.304247  5.447099  1.429840
  C     5.466253  8.847986  1.254316
  N     7.554262  5.939648  1.122384
  N     7.631332  9.629575  1.031186
  N     5.301689  5.169365  0.117687
  N     5.525873  8.713811 -0.084542
  N     4.916815  5.763580  3.999334
  N     4.835650  8.931136  3.804540
  S     4.097072  5.366751  2.628576
  S     4.104224  8.701392  2.326879
  S     6.866925  5.526323 -0.332646
  S     6.995857  9.323275 -0.505640
  S     6.504667  6.081510  3.721898
  S     6.442753  9.668311  3.636850
