16  
    
  C    12.742648  8.857132  3.545604
  C    12.257066 12.983696  3.790713
  C    11.483838  8.405452  2.970260
  C    11.191811 12.253047  3.165332
  N    13.730948  9.017188  2.664738
  N    13.312717 13.141195  2.988671
  N    11.430258  8.316365  1.668786
  N    11.332708 12.039963  1.862465
  N    10.877752  8.662271  5.518427
  N    10.476737 12.549572  5.576059
  S    10.154198  8.216066  4.017189
  S     9.976295 11.733810  4.202418
  S    13.002681  8.722673  1.180977
  S    12.822624 12.579544  1.514212
  S    12.463587  9.114408  5.276933
  S    12.056325 13.123890  5.532985
