16  
    
  C    11.921001  8.386937  3.294953
  C    11.548162 12.020917  3.502617
  C    10.660535  8.118632  2.613227
  C    10.356926 11.485691  2.869113
  N    12.909946  8.654568  2.456407
  N    12.574265 12.352799  2.723768
  N    10.723677  8.205156  1.276834
  N    10.508074 11.299186  1.582627
  N    10.160462  8.170847  5.109496
  N     9.700698 11.715296  5.330291
  S     9.309030  8.188129  3.692203
  S     8.997347 11.142306  3.953068
  S    12.339562  8.540104  0.893892
  S    11.970663 12.034521  1.160085
  S    11.779519  8.463989  5.027425
  S    11.317914 12.122194  5.209658
