16  
    
  C     3.469068  4.708396  1.503148
  C     3.597745  8.303876  1.270795
  C     2.343498  4.047996  0.861771
  C     2.298311  8.118416  0.694290
  N     4.549826  4.773395  0.720359
  N     4.557848  8.442774  0.381634
  N     2.537452  3.811228 -0.419814
  N     2.243618  8.090949 -0.635884
  N     1.699447  4.240759  3.332170
  N     1.894653  8.132161  3.253254
  S     1.046608  3.636696  1.920449
  S     1.044558  7.795002  1.818969
  S     4.031773  4.299216 -0.832162
  S     3.792184  8.305104 -1.121546
  S     3.230854  4.850546  3.177968
  S     3.481541  8.600130  2.971873
