16  
    
  C     9.175147  6.927001  2.374637
  C     8.974435 10.711854  2.349982
  C     7.968611  6.483168  1.784475
  C     7.780473 10.271753  1.705352
  N    10.173381  7.152325  1.550610
  N     9.984770 10.906182  1.498943
  N     8.021761  6.294616  0.475012
  N     7.882743 10.088948  0.382519
  N     7.543904  6.840630  4.332857
  N     7.161731 10.758573  4.138510
  S     6.652773  6.374923  2.989564
  S     6.427868 10.012055  2.816756
  S     9.600400  6.733636  0.045302
  S     9.440030 10.470611  0.021925
  S     9.115317  7.284174  4.042947
  S     8.787954 11.114127  4.035708
