16  
    
  C    10.508157  7.261119  2.810327
  C    10.250838 11.038995  2.783189
  C     9.216460  7.472745  2.155250
  C     8.979921 10.869424  2.161260
  N    11.560204  7.059007  2.013539
  N    11.273893 11.143220  1.955294
  N     9.274193  7.479093  0.844891
  N     9.062663 10.715783  0.863081
  N     8.706833  7.386004  4.733852
  N     8.487304 11.045901  4.678328
  S     7.895216  7.434470  3.255645
  S     7.722146 10.630816  3.248886
  S    10.845880  7.126087  0.462728
  S    10.626827 10.894408  0.417720
  S    10.353037  7.215964  4.550654
  S    10.135345 11.221115  4.519906
