16  
    
  C    11.320606  8.108492  3.283460
  C    11.376515 11.753608  3.315961
  C    10.063949  7.789124  2.666111
  C    10.075725 11.529245  2.771568
  N    12.404319  8.077578  2.491281
  N    12.350753 11.779055  2.419483
  N    10.139160  7.628664  1.364169
  N    10.030602 11.316699  1.464972
  N     9.450443  8.348799  5.097820
  N     9.728681 12.163960  5.294099
  S     8.699449  7.660984  3.764648
  S     8.863121 11.725873  3.909022
  S    11.788721  7.769356  0.956198
  S    11.594621 11.456792  0.908769
  S    11.115857  8.487784  4.977430
  S    11.427784 12.076305  4.993194
