16  
    
  C     9.256266  7.115255  2.540556
  C     8.920749 11.039134  2.351470
  C     8.056714  6.484345  2.070208
  C     7.755921 10.387855  1.762238
  N    10.163405  7.186162  1.561874
  N     9.851865 11.267983  1.442575
  N     7.983568  6.322432  0.757915
  N     7.808774 10.145898  0.469836
  N     7.524062  6.986714  4.449985
  N     7.226434 10.480805  4.248845
  S     6.751747  6.316378  3.129984
  S     6.405809 10.148527  2.797676
  S     9.443290  6.665606  0.181147
  S     9.359535 10.644570 -0.020111
  S     9.156543  7.373956  4.284154
  S     8.681305 11.315739  4.061287
