16  
    
  C    10.472125  7.451487  2.638173
  C    10.411102 11.318846  2.647370
  C     9.139201  7.406005  2.075902
  C     9.135800 11.146624  2.009297
  N    11.467334  7.351308  1.773586
  N    11.468098 11.332590  1.811823
  N     9.154636  7.290328  0.766869
  N     9.274967 10.786303  0.731243
  N     8.818246  7.773501  4.588229
  N     8.572140 11.281685  4.499114
  S     7.855208  7.451819  3.244067
  S     7.765977 11.250051  3.060572
  S    10.707247  7.194440  0.310203
  S    10.876492 10.944995  0.357385
  S    10.487179  7.619977  4.426516
  S    10.242509 11.502362  4.411773
