16  
    
  C    11.850092  8.815427  3.323944
  C    11.509780 12.378336  3.229243
  C    10.555911  8.352899  2.836515
  C    10.489723 11.589902  2.569449
  N    12.794479  8.805218  2.382038
  N    12.485039 12.672541  2.384861
  N    10.574934  7.907271  1.578459
  N    10.638935 11.399659  1.249036
  N    10.303753  8.551935  5.415572
  N     9.766557 11.804890  5.067074
  S     9.374636  8.211218  4.092150
  S     9.146089 11.299145  3.552365
  S    12.083605  8.276847  0.989964
  S    12.072388 12.003128  0.896213
  S    11.863425  9.136134  5.117425
  S    11.278756 12.566747  4.936096
