16  
    
  C     4.488162  5.043569  1.777052
  C     4.568397  8.517406  1.449518
  C     3.259046  4.651315  1.097925
  C     3.380471  7.983337  0.813815
  N     5.460722  5.427263  0.950525
  N     5.643950  8.510858  0.654453
  N     3.414459  4.489860 -0.221187
  N     3.505080  7.853170 -0.507385
  N     2.823062  4.720680  3.670796
  N     2.739394  8.545056  3.207614
  S     1.948124  4.491480  2.245617
  S     2.032526  7.912113  1.865970
  S     5.015733  4.990365 -0.544948
  S     5.122931  8.094017 -0.803627
  S     4.377703  5.352509  3.451839
  S     4.336818  8.904367  3.109035
