16  
    
  C    12.870091  9.340389  3.494260
  C    12.786697 12.888198  3.588502
  C    11.667470  8.868891  2.837639
  C    11.508050 12.460485  3.013662
  N    13.925895  9.478981  2.653701
  N    13.823377 12.925706  2.717675
  N    11.823532  8.602005  1.551406
  N    11.599478 12.124774  1.727658
  N    10.985071  9.059683  5.340814
  N    11.083633 12.762476  5.479871
  S    10.336249  8.516879  3.854735
  S    10.188367 12.399238  4.106365
  S    13.418717  8.830369  1.124888
  S    13.155638 12.510690  1.289301
  S    12.548958  9.746472  5.167273
  S    12.675290 13.200535  5.364637
