16  
    
  C    11.333728  8.527189  3.354444
  C    11.402532 12.338848  3.312580
  C    10.152228  7.916961  2.749361
  C    10.240760 11.664334  2.788510
  N    12.404605  8.614533  2.583209
  N    12.416844 12.495398  2.453601
  N    10.415866  7.511314  1.534754
  N    10.315835 11.328006  1.494125
  N     9.515237  8.430503  5.151894
  N     9.740298 12.426018  5.185538
  S     8.772834  7.776937  3.794429
  S     8.913241 11.737941  3.972905
  S    11.974221  7.997088  1.113165
  S    11.908304 11.683397  1.063553
  S    11.115241  8.958506  4.997667
  S    11.293135 12.755340  4.949236
