16  
    
  C    10.459438  7.484140  2.622099
  C    10.426933 11.334208  2.636601
  C     9.141420  7.420125  2.077792
  C     9.166081 11.156176  1.995453
  N    11.446523  7.353710  1.767704
  N    11.483262 11.332306  1.828066
  N     9.154173  7.282015  0.765874
  N     9.265224 10.812866  0.721707
  N     8.808673  7.792485  4.598473
  N     8.563543 11.280448  4.497972
  S     7.846775  7.428980  3.245507
  S     7.775232 11.274437  3.058516
  S    10.714016  7.195873  0.307973
  S    10.893087 10.951078  0.368280
  S    10.477540  7.639568  4.399672
  S    10.242363 11.511793  4.411509
