16  
    
  C     5.485626  5.548531  1.668039
  C     5.340703  8.874132  1.676349
  C     4.253197  5.012441  1.097334
  C     4.159447  8.427169  0.925974
  N     6.450645  5.721409  0.732819
  N     6.374536  9.207826  0.896308
  N     4.272316  5.017031 -0.251977
  N     4.391327  8.139376 -0.361530
  N     3.660246  5.182603  3.569343
  N     3.341632  8.730081  3.371999
  S     2.854630  5.048207  2.093560
  S     2.701032  8.347205  1.905058
  S     5.760941  5.468541 -0.744037
  S     5.966350  8.686102 -0.653853
  S     5.318480  5.675351  3.409266
  S     4.954642  9.185038  3.339921
