16  
    
  C    12.770948  8.968916  3.832489
  C    12.535492 12.693882  3.969840
  C    11.515962  8.470524  3.211265
  C    11.386897 12.138599  3.226139
  N    13.694492  9.218892  2.933151
  N    13.564042 13.038898  3.224233
  N    11.623620  8.193767  1.938527
  N    11.651849 11.984736  1.927553
  N    11.008893  8.500395  5.656428
  N    10.685098 12.284416  5.673766
  S    10.184600  8.151464  4.297888
  S     9.985785 11.901100  4.160731
  S    13.112174  8.716606  1.399099
  S    13.205474 12.608044  1.703842
  S    12.561797  9.026393  5.531605
  S    12.204295 12.964940  5.682610
