16  
    
  C     6.546118  5.850923  2.080257
  C     6.156958  9.218716  1.857981
  C     5.392258  5.247161  1.423995
  C     4.930815  8.811847  1.167202
  N     7.594379  5.980300  1.260561
  N     7.237299  9.434018  1.077348
  N     5.467097  5.088621  0.099366
  N     5.087213  8.668224 -0.141852
  N     4.620808  5.728962  3.856309
  N     4.365017  8.983607  3.655757
  S     4.025515  5.143674  2.467104
  S     3.611221  8.530384  2.249024
  S     7.029989  5.569045 -0.257055
  S     6.675611  8.959636 -0.473214
  S     6.261515  6.056790  3.781242
  S     5.918289  9.323143  3.594065
