16  
    
  C     6.872416  5.696262  1.713809
  C     7.257030 10.005798  2.477581
  C     5.779924  5.036163  1.087171
  C     6.004799  9.461932  1.926223
  N     7.947466  5.739720  0.962427
  N     8.196200 10.162839  1.566219
  N     5.981720  4.743919 -0.177655
  N     6.025318  9.264495  0.638209
  N     4.767422  5.915792  3.269277
  N     5.542805  9.665832  4.445189
  S     4.307431  5.054992  1.962036
  S     4.723670  9.406164  3.067996
  S     7.546837  5.115399 -0.490740
  S     7.576286  9.638696  0.125307
  S     6.423903  6.251737  3.239229
  S     7.172828 10.280131  4.180892
