16  
    
  C    10.760196  8.440061  3.257485
  C    10.721623 11.944484  3.218313
  C     9.613687  7.804126  2.694739
  C     9.510008 11.474895  2.520066
  N    11.736734  8.654921  2.367033
  N    11.809865 12.001004  2.433721
  N     9.686626  7.528256  1.392216
  N     9.671372 11.279486  1.205085
  N     8.983208  8.216070  5.074395
  N     8.887551 11.710730  5.060484
  S     8.307056  7.494944  3.738025
  S     8.198360 11.063705  3.645223
  S    11.239315  7.964894  0.928575
  S    11.278544 11.586740  0.898488
  S    10.557180  8.747875  4.937786
  S    10.534074 12.048829  4.928696
