16  
    
  C     7.999059  6.739567  2.670443
  C     8.639450 10.368320  2.598385
  C     6.887393  6.132026  1.962835
  C     7.382023  9.936471  2.019246
  N     9.111662  6.772882  1.920876
  N     9.675486 10.329298  1.785487
  N     7.077739  5.947205  0.663756
  N     7.428390  9.636949  0.705928
  N     6.105052  6.220624  4.364899
  N     6.907196 10.237795  4.528854
  S     5.440667  5.890790  2.870605
  S     6.098193  9.780425  3.158025
  S     8.606098  6.315556  0.360635
  S     8.991957  9.952927  0.218357
  S     7.646222  6.808247  4.403747
  S     8.492224 10.725632  4.304791
