16  
    
  C     6.006035  5.635148  2.131566
  C     6.013615  9.152069  1.591886
  C     4.698869  5.393927  1.524914
  C     4.791664  8.704580  0.918924
  N     7.019273  5.538629  1.280318
  N     7.001681  9.340755  0.730159
  N     4.744255  5.300786  0.198337
  N     4.932993  8.455759 -0.381858
  N     4.362565  5.823676  4.064399
  N     4.237891  9.103941  3.406402
  S     3.492383  5.735691  2.687714
  S     3.430323  8.734026  2.068814
  S     6.373718  5.328838 -0.222115
  S     6.511967  8.839034 -0.785377
  S     6.002410  5.869461  3.838964
  S     5.850288  9.485697  3.282143
