16  
    
  C     8.047327  6.624268  2.660594
  C     8.651764 10.410570  2.768902
  C     6.911426  6.076333  1.894081
  C     7.469345  9.918114  2.063241
  N     9.181895  6.818144  2.009207
  N     9.719519 10.555614  1.973161
  N     7.204976  5.942895  0.595328
  N     7.638928  9.688063  0.760973
  N     6.157806  6.344362  4.378824
  N     6.891228 10.259725  4.627540
  S     5.496162  5.798471  2.949124
  S     6.092855  9.963552  3.218600
  S     8.846420  6.424575  0.410814
  S     9.222628 10.125686  0.458796
  S     7.802164  6.782711  4.342135
  S     8.501662 10.658626  4.466459
