16  
    
  C     9.429202  7.031537  2.974343
  C     9.653810 10.760035  2.594778
  C     8.271331  6.551179  2.277337
  C     8.447185 10.336164  1.969179
  N    10.371052  7.360731  2.129710
  N    10.575943 11.147542  1.741920
  N     8.323281  6.481758  0.957661
  N     8.462701 10.253651  0.647793
  N     7.617197  6.481741  4.759043
  N     7.951047 10.342963  4.548885
  S     6.991505  5.987568  3.298217
  S     7.147930  9.885509  3.126053
  S     9.837345  7.108190  0.564693
  S    10.011841 10.889976  0.220141
  S     9.215155  6.912639  4.741373
  S     9.509926 10.877122  4.337440
