16  
    
  C     5.751818  5.094178  1.960546
  C     5.656722  9.166470  1.978834
  C     4.588921  4.557479  1.340635
  C     4.546793  8.438097  1.464444
  N     6.720694  5.482206  1.123893
  N     6.620506  9.500244  1.131452
  N     4.698559  4.259650  0.048329
  N     4.596785  8.322020  0.141141
  N     3.948003  4.828949  3.833604
  N     4.049421  8.747981  3.964782
  S     3.260626  4.243331  2.368131
  S     3.262370  8.134750  2.650536
  S     6.210655  4.839164 -0.367855
  S     6.033799  9.029139 -0.378266
  S     5.480323  5.514939  3.608014
  S     5.618916  9.311996  3.713569
