16  
    
  C     6.580330  5.863809  2.080257
  C     6.174680  9.193016  1.852681
  C     5.452547  5.243781  1.454571
  C     4.968913  8.825758  1.202499
  N     7.638115  6.004274  1.271498
  N     7.226460  9.434964  1.077790
  N     5.549728  5.080611  0.126496
  N     5.128328  8.655641 -0.108785
  N     4.646092  5.712811  3.825296
  N     4.356229  9.012491  3.647326
  S     3.988774  5.111395  2.459550
  S     3.623248  8.526593  2.275642
  S     7.068112  5.605126 -0.261824
  S     6.746216  8.999734 -0.443048
  S     6.289277  6.048017  3.813743
  S     5.928380  9.315607  3.584576
