16  
    
  C     7.313588  5.992848  2.249441
  C     7.693397  9.588683  2.383189
  C     6.203819  5.464104  1.477222
  C     6.470063  9.310446  1.728044
  N     8.382869  6.213743  1.472154
  N     8.693646  9.772172  1.515317
  N     6.366501  5.437972  0.148336
  N     6.456812  9.308877  0.401006
  N     5.355123  5.673167  3.928635
  N     5.834281  9.768098  4.184500
  S     4.723074  5.252035  2.379076
  S     5.055582  9.276661  2.725070
  S     7.912023  5.904877 -0.092913
  S     8.079613  9.593312 -0.002781
  S     7.019515  6.030321  3.993459
  S     7.507373  9.768983  4.142527
