16  
    
  C     9.263236  6.929117  2.766207
  C     9.701081 10.857126  2.713429
  C     8.089802  6.415370  2.094213
  C     8.552437 10.199067  2.079108
  N    10.226777  7.253437  1.900102
  N    10.594999 11.298970  1.832229
  N     8.151785  6.308884  0.761054
  N     8.650943 10.046822  0.763293
  N     7.454055  6.337973  4.572981
  N     8.163927 10.057919  4.654378
  S     6.700374  6.089531  3.122212
  S     7.386195  9.616517  3.244704
  S     9.647318  6.905347  0.355699
  S    10.081804 10.841796  0.332674
  S     8.985176  6.941329  4.481968
  S     9.542896 10.942909  4.442354
