16  
    
  C     9.540888  7.646565  2.621375
  C    10.143181 11.314587  2.591707
  C     8.467539  6.827735  2.102668
  C     8.913695 10.906452  1.984202
  N    10.537940  7.848957  1.776171
  N    11.156914 11.392683  1.753260
  N     8.678345  6.428602  0.846617
  N     8.926718 10.758303  0.673675
  N     7.854966  7.363928  4.553226
  N     8.516396 11.025230  4.532946
  S     7.131251  6.572913  3.256377
  S     7.633522 10.720174  3.159547
  S    10.187213  6.997410  0.426265
  S    10.495099 11.042779  0.234431
  S     9.348848  7.951846  4.273746
  S    10.070884 11.610746  4.296854
