16  
    
  C     5.708314  5.192805  1.877482
  C     5.665779  9.187676  2.004242
  C     4.640919  4.486934  1.266617
  C     4.523315  8.542809  1.422960
  N     6.799497  5.335344  1.091076
  N     6.558463  9.621910  1.124380
  N     4.818864  4.280848 -0.038908
  N     4.651593  8.271288  0.114908
  N     3.987742  4.687051  3.708320
  N     4.124950  8.708345  3.987046
  S     3.234674  4.325303  2.292278
  S     3.306885  8.232157  2.624057
  S     6.354993  4.761050 -0.376666
  S     6.071349  9.002829 -0.313043
  S     5.463466  5.390065  3.630155
  S     5.638705  9.455818  3.742060
