16  
    
  C     5.107986  4.905911  1.709335
  C     4.998146  8.718810  1.804577
  C     3.764116  4.769616  1.266052
  C     3.686151  8.385634  1.255092
  N     5.982859  5.084130  0.707624
  N     5.993850  8.701846  0.933770
  N     3.561350  4.845303 -0.036728
  N     3.747396  8.068312 -0.031411
  N     3.581364  4.740082  3.802788
  N     3.344579  8.678066  3.820926
  S     2.578019  4.640731  2.506080
  S     2.455628  8.360928  2.487365
  S     5.047959  4.963049 -0.723097
  S     5.315998  8.266510 -0.545225
  S     5.188662  4.860101  3.502925
  S     4.924912  9.093242  3.502501
