16  
    
  C     6.753665  6.190925  2.396119
  C     7.291683  9.625789  2.212657
  C     5.673179  5.424928  1.818496
  C     5.978056  9.426339  1.580033
  N     7.589523  6.666386  1.490550
  N     8.232508  9.760692  1.293820
  N     5.709426  5.346502  0.507628
  N     5.970690  9.339810  0.256659
  N     5.364596  5.206781  4.361280
  N     5.486481  9.468986  4.026019
  S     4.546115  4.722949  2.924861
  S     4.614399  9.458016  2.630183
  S     7.072100  6.119272 -0.002765
  S     7.577129  9.479780 -0.238363
  S     6.601487  6.222752  4.118931
  S     7.098134  9.822717  3.950466
