16  
    
  C     8.559821  6.707983  2.370887
  C     8.366654 10.290662  2.470230
  C     7.379662  6.114289  1.832533
  C     7.225429  9.741212  1.845291
  N     9.520256  6.854939  1.458605
  N     9.411467 10.421118  1.661196
  N     7.298833  6.051595  0.505139
  N     7.361271  9.533063  0.543043
  N     6.933128  6.227763  4.302680
  N     6.521459 10.143086  4.219868
  S     6.066157  5.908086  2.935709
  S     5.839452  9.504418  2.840774
  S     8.844865  6.548195 -0.029433
  S     8.932691 10.011547  0.178426
  S     8.505990  6.777649  4.126076
  S     8.108887 10.555260  4.158205
