16  
    
  C     9.197051  6.828782  2.363242
  C     9.176541 10.858366  3.020208
  C     7.990796  6.209931  1.807403
  C     7.906185 10.418817  2.398683
  N    10.272919  6.756653  1.619031
  N    10.175165 10.829718  2.155877
  N     8.194832  5.727081  0.590192
  N     7.990260  9.995745  1.169650
  N     7.436652  6.977449  4.175388
  N     7.393854 10.995431  4.801264
  S     6.601773  6.333380  2.862077
  S     6.564804 10.591592  3.439661
  S     9.813824  6.065290  0.206294
  S     9.602530 10.302294  0.706106
  S     9.084834  7.223501  3.971376
  S     9.030835 11.132123  4.682107
