16  
    
  C     3.690568  4.779130  1.545979
  C     3.847370  8.293485  1.707287
  C     2.421428  4.360998  0.922910
  C     2.584707  8.002694  1.091797
  N     4.756271  4.795318  0.705677
  N     4.847840  8.402896  0.820840
  N     2.487240  4.329330 -0.411000
  N     2.679643  7.614855 -0.200469
  N     1.937578  4.438252  3.415727
  N     2.071153  8.350486  3.558071
  S     1.055850  4.313821  2.049013
  S     1.253106  7.889425  2.223788
  S     4.130325  4.686903 -0.831724
  S     4.283157  7.863455 -0.614379
  S     3.530825  4.894594  3.279749
  S     3.693831  8.734456  3.376078
