16  
    
  C     5.387771  5.564061  1.682890
  C     5.226725  8.961774  1.793792
  C     4.199368  5.288399  0.920950
  C     4.029402  8.616651  1.054498
  N     6.505321  5.717767  0.996292
  N     6.291225  9.138501  1.008374
  N     4.432346  5.122692 -0.369405
  N     4.217723  8.638911 -0.257065
  N     3.445626  5.276848  3.412452
  N     3.350269  8.668600  3.543057
  S     2.739596  5.070132  1.912063
  S     2.694042  8.172854  2.083843
  S     6.063965  5.332254 -0.599545
  S     5.801407  8.905843 -0.564256
  S     5.060701  5.732833  3.402256
  S     4.976486  8.864152  3.508154
