16  
    
  C     9.266502  6.730077  2.436207
  C     9.595159 10.613691  2.760134
  C     8.086384  6.271971  1.729804
  C     8.347240 10.214893  2.212944
  N    10.343359  6.871364  1.665857
  N    10.598070 10.591449  1.919259
  N     8.239723  6.212604  0.403275
  N     8.347348  9.984082  0.894564
  N     7.453506  6.409006  4.256482
  N     7.891702 10.567922  4.750483
  S     6.671377  6.050127  2.832120
  S     7.008729 10.253205  3.405705
  S     9.816020  6.620573  0.111705
  S     9.930104 10.272652  0.432539
  S     9.046032  6.747708  4.131205
  S     9.484969 10.926537  4.503221
