16  
    
  C    12.053500  8.829595  3.443842
  C    11.817369 12.273153  3.321445
  C    10.848529  8.530336  2.710858
  C    10.506338 12.029465  2.731703
  N    13.132653  9.041279  2.739705
  N    12.785490 12.482087  2.438219
  N    11.018929  8.453830  1.389228
  N    10.574385 11.791297  1.394512
  N    10.183226  8.543131  5.226607
  N    10.343026 12.082053  5.307469
  S     9.454880  8.305032  3.778545
  S     9.315880 11.891640  4.010783
  S    12.699104  8.703644  1.189669
  S    12.123393 12.262981  0.934584
  S    11.837650  8.862229  5.155929
  S    11.917103 12.236831  5.013579
