16  
    
  C    11.040251  8.174688  3.112558
  C    11.520173 11.692044  3.180848
  C     9.818786  7.510798  2.636834
  C    10.284620 11.489765  2.480821
  N    11.992846  8.269850  2.163971
  N    12.646805 11.811662  2.467895
  N     9.900482  7.081567  1.367794
  N    10.496584 11.337067  1.198226
  N     9.493385  8.084830  5.169137
  N     9.612944 11.417394  4.948880
  S     8.612608  7.399625  3.848004
  S     8.866058 11.281751  3.453728
  S    11.342864  7.653042  0.784270
  S    12.101068 11.348005  0.888950
  S    11.071693  8.450847  4.780128
  S    11.238455 11.887540  4.889088
