16  
    
  C    12.402742  9.091377  3.442328
  C    12.467465 12.727436  3.485842
  C    11.262559  8.536115  2.668023
  C    11.169726 12.286139  2.966771
  N    13.419908  9.549609  2.701168
  N    13.367556 12.870943  2.507408
  N    11.448842  8.566680  1.352010
  N    11.161562 12.040945  1.665534
  N    10.617176  8.407384  5.081180
  N    10.824951 12.635753  5.505139
  S     9.962856  7.973143  3.673713
  S     9.962447 11.922991  4.214134
  S    12.986466  9.252832  1.135852
  S    12.615211 12.448638  1.044689
  S    12.040120  9.239757  5.190852
  S    12.375241 13.092604  5.194489
