16  
    
  C    12.207870  8.906272  3.537391
  C    12.027874 12.574139  3.454175
  C    11.049706  8.476647  2.782209
  C    10.760978 12.226510  2.781278
  N    13.264621  9.249826  2.791425
  N    13.041216 12.424479  2.616730
  N    11.286635  8.384617  1.458699
  N    10.826255 12.142119  1.459810
  N    10.323210  8.730547  5.293860
  N    10.210924 12.139807  5.355941
  S     9.629784  8.344838  3.741064
  S     9.496280 11.859575  3.893653
  S    12.836137  8.838942  1.214010
  S    12.444903 12.327521  1.065924
  S    11.918684  9.202183  5.153741
  S    11.842405 12.670984  5.201796
