16  
    
  C    10.981216  8.033228  3.049256
  C    10.979512 11.682418  2.723372
  C     9.734492  7.431665  2.586173
  C     9.710237 11.197945  2.168444
  N    11.861008  8.251264  2.100323
  N    11.969796 11.882799  1.839543
  N     9.690227  7.173655  1.289299
  N     9.777601 11.000224  0.855339
  N     9.552600  7.549236  5.078453
  N     9.278656 11.281800  4.688713
  S     8.589467  7.066769  3.840661
  S     8.385780 10.980978  3.307684
  S    11.130977  7.702019  0.666721
  S    11.345604 11.438771  0.403593
  S    10.992045  8.207548  4.735971
  S    10.837066 11.824896  4.439808
