16  
    
  C     8.654703  7.246597  2.683869
  C     8.911507 10.991912  2.292506
  C     7.497487  6.488376  2.169992
  C     7.720956 10.523089  1.556735
  N     9.639975  7.474474  1.840712
  N     9.934472 11.411259  1.529898
  N     7.564009  6.314126  0.847729
  N     7.866776 10.639119  0.234053
  N     7.176146  7.003471  4.718800
  N     7.224508 10.452567  4.120204
  S     6.365848  6.184111  3.455450
  S     6.458910 10.084644  2.690718
  S     9.116427  6.847891  0.403158
  S     9.398439 11.178024 -0.079381
  S     8.711579  7.542664  4.329828
  S     8.769657 11.124763  3.982434
