16  
    
  C    12.618480  8.829525  3.653597
  C    12.427936 12.774639  3.898287
  C    11.384672  8.488544  3.019413
  C    11.319355 12.142952  3.233160
  N    13.644877  9.021917  2.860394
  N    13.450853 13.093942  3.119923
  N    11.530503  8.260258  1.713407
  N    11.466594 12.046141  1.917201
  N    11.024179  8.500811  5.511408
  N    10.560497 12.449133  5.693037
  S    10.139900  8.185957  4.208721
  S     9.894712 11.793480  4.243467
  S    13.121352  8.674099  1.287452
  S    13.034200 12.632390  1.592631
  S    12.562208  9.126332  5.393266
  S    12.049522 13.113867  5.587282
