16  
    
  C     7.503359  6.205041  2.158948
  C     7.887753  9.899173  2.311439
  C     6.359533  5.548883  1.589502
  C     6.672115  9.330761  1.753598
  N     8.522213  6.430753  1.321263
  N     8.816448 10.238738  1.440116
  N     6.443797  5.465846  0.270038
  N     6.741715  9.282152  0.409988
  N     5.878542  5.708317  4.155856
  N     6.213168  9.712531  4.292820
  S     5.114904  5.318497  2.745584
  S     5.453737  9.043401  2.978400
  S     7.989565  6.045887 -0.164461
  S     8.261461  9.874635 -0.056124
  S     7.471176  6.245762  3.845680
  S     7.836306 10.154684  3.993663
