16  
    
  C    12.245535  8.883238  3.525933
  C    11.980069 12.485855  3.430246
  C    11.077071  8.471927  2.785492
  C    10.711425 12.283522  2.816029
  N    13.304263  9.225293  2.811256
  N    13.025175 12.466648  2.582764
  N    11.217518  8.349645  1.493235
  N    10.782164 12.134789  1.502396
  N    10.262039  8.662725  5.256101
  N    10.274202 12.104729  5.308529
  S     9.591408  8.352020  3.713225
  S     9.513269 11.862368  3.895400
  S    12.804659  8.843198  1.210013
  S    12.320145 12.284848  1.039849
  S    11.864163  9.155767  5.186388
  S    11.809042 12.583687  5.200765
