16  
    
  C     9.439909  7.163718  2.979785
  C     9.569067 10.869740  2.609215
  C     8.368024  6.560275  2.234831
  C     8.345964 10.471509  2.031422
  N    10.483179  7.566461  2.243531
  N    10.569765 11.120371  1.787380
  N     8.609132  6.525659  0.925772
  N     8.425840 10.331057  0.709472
  N     7.742754  6.482173  4.743850
  N     7.918286 10.427103  4.569690
  S     7.077949  6.038599  3.276982
  S     7.065703 10.129040  3.181109
  S    10.088618  7.294223  0.663593
  S     9.950593 10.795523  0.258965
  S     9.252727  7.048812  4.741166
  S     9.501979 10.920206  4.363675
