16  
    
  C    12.409795  9.139925  3.297174
  C    12.210438 12.760817  3.345621
  C    11.148220  8.589161  2.833479
  C    11.078350 12.203898  2.727845
  N    13.425247  9.210277  2.454102
  N    13.317287 12.941895  2.656805
  N    11.155601  8.331533  1.528211
  N    11.380690 11.804849  1.495810
  N    10.900500  9.111449  5.352367
  N    10.430037 12.613279  5.212485
  S     9.892434  8.653159  4.117807
  S     9.766973 12.063701  3.824680
  S    12.751239  8.731908  0.979064
  S    12.952490 12.194108  1.217743
  S    12.371449  9.555642  4.960139
  S    12.043236 13.114009  5.022026
