16  
    
  C     7.705242  6.622382  2.459736
  C     7.833639 10.114167  2.170292
  C     6.503072  6.046558  1.877082
  C     6.563763  9.919199  1.467969
  N     8.739161  6.602715  1.601656
  N     8.882529 10.033534  1.321870
  N     6.580798  5.833888  0.534373
  N     6.631335  9.700675  0.156428
  N     5.846568  6.882724  4.218255
  N     5.961972 10.016258  3.944275
  S     5.160735  6.168291  2.897777
  S     5.186227  9.956310  2.461486
  S     8.105139  6.146444  0.147463
  S     8.267041  9.756861 -0.204601
  S     7.535192  7.090113  4.099769
  S     7.593559 10.345107  3.880366
