16  
    
  C    10.989893  7.860084  3.067380
  C    10.937653 11.731830  2.740807
  C     9.707790  7.326700  2.590590
  C     9.772729 11.181860  2.157560
  N    11.860243  8.177249  2.080837
  N    11.963790 11.821126  1.896342
  N     9.680891  7.260953  1.243323
  N     9.874522 10.921722  0.852481
  N     9.441914  7.515755  5.138278
  N     9.366412 11.200308  4.679115
  S     8.504987  7.092607  3.799932
  S     8.468841 11.032839  3.243251
  S    11.155923  7.713140  0.697370
  S    11.348582 11.419378  0.369304
  S    11.022965  8.079301  4.803672
  S    10.902279 11.944174  4.478894
