16  
    
  C    10.059716  7.757501  3.016856
  C    10.519369 11.815915  2.971547
  C     8.895452  7.360328  2.275155
  C     9.371474 11.055943  2.579876
  N    11.113949  7.935814  2.240833
  N    11.395927 11.932305  2.003671
  N     9.078257  7.237707  0.955304
  N     9.301215 10.702253  1.311611
  N     8.365352  7.013476  4.870681
  N     9.151108 11.448844  5.117459
  S     7.556868  6.857838  3.344830
  S     8.173356 10.839938  3.870118
  S    10.632835  7.628649  0.697918
  S    10.791737 11.241368  0.649203
  S    10.010301  7.551057  4.740414
  S    10.634886 12.022723  4.726279
