16  
    
  C     5.448856  5.428814  1.652790
  C     5.261662  8.989079  1.550374
  C     4.143063  5.174458  1.079463
  C     4.118377  8.354171  0.904789
  N     6.374913  5.753203  0.739507
  N     6.335882  9.042267  0.761278
  N     4.129467  5.029461 -0.264287
  N     4.328298  8.165455 -0.399006
  N     3.784262  5.397126  3.598562
  N     3.400474  8.776892  3.324881
  S     2.896945  4.989180  2.256400
  S     2.729913  8.309680  1.894705
  S     5.667294  5.353040 -0.769519
  S     5.863444  8.570860 -0.743314
  S     5.363517  5.689080  3.408801
  S     4.953928  9.330543  3.211497
