16  
    
  C     4.225394  4.863001  1.615063
  C     4.098885  8.323079  1.496511
  C     2.973843  4.564551  1.029373
  C     2.917883  7.917570  0.818973
  N     5.245596  4.820576  0.763591
  N     5.141803  8.588984  0.702956
  N     3.001486  4.365616 -0.274783
  N     3.048518  7.652979 -0.473666
  N     2.369721  4.682956  3.403512
  N     2.238951  8.346724  3.233490
  S     1.619389  4.392809  2.021698
  S     1.477770  7.953300  1.835057
  S     4.532152  4.456757 -0.743267
  S     4.624675  8.080836 -0.850405
  S     4.016841  5.006069  3.347889
  S     3.922946  8.645184  3.184357
