16  
    
  C     4.963255  4.791011  1.634946
  C     4.853626  8.787099  1.781347
  C     3.572040  4.754327  1.209875
  C     3.588974  8.299439  1.302411
  N     5.865704  4.955152  0.691672
  N     5.779330  8.871776  0.827100
  N     3.476053  4.649341 -0.106975
  N     3.536050  8.221648 -0.023736
  N     3.605150  4.781199  3.732122
  N     3.319830  8.690669  3.760169
  S     2.540646  4.429989  2.544441
  S     2.349077  8.305941  2.507954
  S     5.021771  4.860090 -0.734044
  S     5.022446  8.520644 -0.606303
  S     5.189001  4.762344  3.316472
  S     4.941697  9.014297  3.506836
