16  
    
  C    10.259038  7.151101  2.683842
  C    10.330834 10.994326  2.760358
  C     8.992505  6.964564  2.056292
  C     9.033085 10.773694  2.098935
  N    11.317149  7.321175  1.893591
  N    11.374062 11.085005  1.942187
  N     9.149528  6.957180  0.740674
  N     9.112523 10.746990  0.784311
  N     8.554414  7.394469  4.540870
  N     8.562379 10.732984  4.623635
  S     7.662389  7.048169  3.225317
  S     7.716405 10.946309  3.199278
  S    10.746411  7.208378  0.373706
  S    10.725864 10.973565  0.447781
  S    10.175486  7.418395  4.375120
  S    10.175197 11.000746  4.522857
