16  
    
  C     8.312464  6.666034  2.256135
  C     8.153089 10.128963  2.607132
  C     7.132819  6.085358  1.680523
  C     7.070626  9.449910  1.945850
  N     9.380717  6.689364  1.474486
  N     9.167350 10.395058  1.832743
  N     7.244879  5.780900  0.399759
  N     7.274776  9.198549  0.651844
  N     6.655426  6.467639  4.255883
  N     6.254712  9.811702  4.315685
  S     5.750839  6.054217  2.833335
  S     5.637876  9.170013  2.915353
  S     8.883437  6.119911 -0.026202
  S     8.805479  9.879939  0.299270
  S     8.158185  7.089850  3.939352
  S     7.784221 10.440207  4.275251
