16  
    
  C    11.999345  8.755081  3.399207
  C    11.894620 12.158716  3.254280
  C    10.761290  8.560576  2.710036
  C    10.639491 11.749968  2.747273
  N    13.099346  8.845078  2.627031
  N    12.794964 12.407905  2.321576
  N    10.858752  8.396023  1.377632
  N    10.550017 11.809480  1.425135
  N    10.202627  8.469672  5.252928
  N    10.295720 12.103278  5.327926
  S     9.415964  8.262574  3.799410
  S     9.313420 11.845218  3.900769
  S    12.508296  8.655176  1.043405
  S    12.023330 12.157842  0.835939
  S    11.906718  8.754712  5.119161
  S    11.931907 12.176711  4.983665
