16  
    
  C     9.937945  7.891247  2.690635
  C    10.584092 11.517850  3.125910
  C     8.922042  7.104140  2.039661
  C     9.434244 11.190313  2.322375
  N    10.985457  8.118686  1.944910
  N    11.713433 11.685920  2.431552
  N     9.207383  6.693141  0.827515
  N     9.662617 10.950931  1.018971
  N     8.093356  7.311821  4.436535
  N     8.634131 11.265508  4.805047
  S     7.546505  6.715117  3.001147
  S     7.958197 11.189274  3.269374
  S    10.694713  7.396682  0.467148
  S    11.292451 11.230642  0.847068
  S     9.545503  8.115919  4.320467
  S    10.255292 11.644229  4.805003
