16  
    
  C     6.603814  5.744307  1.915464
  C     6.635600  9.584039  1.911519
  C     5.343326  5.451975  1.343515
  C     5.390180  9.212629  1.332639
  N     7.580926  5.830759  1.018009
  N     7.641008  9.706997  1.036929
  N     5.291741  5.317088  0.022179
  N     5.375954  8.945998  0.035916
  N     4.982316  5.837109  3.908712
  N     4.980078  9.247416  3.851297
  S     4.093905  5.447582  2.535588
  S     4.161076  8.961896  2.528697
  S     6.896047  5.505367 -0.459752
  S     6.909163  9.235409 -0.446317
  S     6.603197  5.985492  3.652581
  S     6.558860  9.737378  3.651537
