16  
    
  C     6.806938  6.052770  2.358145
  C     7.260888  9.575808  2.089362
  C     5.720816  5.375295  1.666166
  C     5.947081  9.332204  1.472649
  N     7.730485  6.579093  1.571568
  N     8.293928  9.746561  1.285021
  N     5.949562  5.336261  0.366120
  N     6.110006  9.240002  0.148330
  N     5.060169  5.413270  4.156295
  N     5.580527  9.826404  3.961662
  S     4.424593  4.808852  2.693222
  S     4.626878  9.367187  2.625169
  S     7.346907  6.177545  0.016989
  S     7.690060  9.520364 -0.286166
  S     6.570069  6.207583  4.081518
  S     7.169335  9.762922  3.787011
