16  
    
  C    12.396122  9.142174  3.352895
  C    12.280149 12.730050  3.503305
  C    11.137973  8.611249  2.792902
  C    11.097002 12.173520  2.796727
  N    13.370102  9.291345  2.473643
  N    13.318097 12.909473  2.666274
  N    11.185714  8.343707  1.498900
  N    11.399089 11.743165  1.582688
  N    10.799086  8.946723  5.304047
  N    10.261274 12.619977  5.110274
  S     9.908235  8.513274  3.944387
  S     9.651038 12.099685  3.714954
  S    12.715206  8.749818  0.986722
  S    12.878095 12.273277  1.112124
  S    12.320461  9.537577  5.088145
  S    11.889344 13.028667  5.243905
