16  
    
  C    10.460097  7.222997  2.798667
  C    10.274786 11.134191  2.725720
  C     9.166613  7.392195  2.157694
  C     9.000300 10.793543  2.128024
  N    11.470874  7.115618  1.976302
  N    11.331286 11.116947  1.922709
  N     9.257624  7.371958  0.850163
  N     9.028267 10.717660  0.817688
  N     8.804723  7.310790  4.671470
  N     8.511851 11.026056  4.615593
  S     7.915286  7.648375  3.332492
  S     7.678221 10.698900  3.259217
  S    10.890763  7.163544  0.447785
  S    10.651020 10.897527  0.390694
  S    10.462417  7.243734  4.532315
  S    10.157001 11.378567  4.477361
