16  
    
  C     6.545224  5.880487  1.983716
  C     6.629696  9.370796  1.888255
  C     5.302071  5.378434  1.425854
  C     5.429363  8.887320  1.272123
  N     7.515856  5.912269  1.084372
  N     7.565695  9.686551  1.004539
  N     5.293197  5.238256  0.102581
  N     5.499357  8.742246 -0.039516
  N     4.956514  5.728276  3.984826
  N     4.978358  8.975696  3.773672
  S     4.069693  5.399016  2.616371
  S     4.117651  8.788674  2.367365
  S     6.848959  5.470019 -0.370416
  S     7.018833  9.320650 -0.470452
  S     6.552932  6.067750  3.708897
  S     6.439292  9.667415  3.571207
