16  
    
  C     9.069616  6.927895  2.591577
  C     9.693756 10.775356  2.741834
  C     7.925254  6.415296  1.905575
  C     8.540363 10.188715  2.204110
  N    10.162081  7.164748  1.859160
  N    10.627851 11.158712  1.861690
  N     8.153223  6.276527  0.575024
  N     8.568618 10.027281  0.869247
  N     7.402520  6.531672  4.433352
  N     8.145523 10.174290  4.723452
  S     6.665221  5.996582  3.033681
  S     7.316914  9.686781  3.369649
  S     9.712236  6.780008  0.326417
  S    10.008546 10.723536  0.384299
  S     9.024628  6.776886  4.326987
  S     9.590244 10.962261  4.492639
