16  
    
  C    11.949979  8.658002  3.510886
  C    11.796886 12.178489  3.184644
  C    10.738254  8.144007  2.838810
  C    10.544820 11.777067  2.621061
  N    12.996799  8.823444  2.722978
  N    12.849291 12.221228  2.348400
  N    10.942078  7.810631  1.572584
  N    10.624705 11.666874  1.277360
  N    10.293900  8.358129  5.452610
  N    10.180604 11.864612  5.260963
  S     9.485811  7.878527  4.031417
  S     9.304582 11.557079  3.824997
  S    12.493459  8.311105  1.186899
  S    12.225354 11.882567  0.888895
  S    11.866390  8.864651  5.224844
  S    11.857665 12.254636  4.894230
