16  
    
  C    11.886991  8.381961  3.293613
  C    11.496862 12.071753  3.483859
  C    10.634341  8.122427  2.595235
  C    10.337622 11.470446  2.855998
  N    12.884303  8.667765  2.451383
  N    12.552787 12.332104  2.700879
  N    10.725048  8.185236  1.267363
  N    10.474467 11.320324  1.554072
  N    10.193517  8.143734  5.121018
  N     9.725591 11.715647  5.294608
  S     9.327449  8.173209  3.686171
  S     8.979602 11.124055  3.977816
  S    12.329041  8.566754  0.882133
  S    11.991544 12.050089  1.167173
  S    11.801976  8.451554  5.017556
  S    11.294841 12.148592  5.231738
