16  
    
  C     6.615432  5.769986  2.050834
  C     6.631327  9.407013  1.894819
  C     5.325908  5.397696  1.473026
  C     5.425439  8.878779  1.242161
  N     7.576809  5.903198  1.147220
  N     7.640845  9.655696  1.052233
  N     5.368473  5.181210  0.167511
  N     5.535257  8.728397 -0.061015
  N     4.860501  5.791489  3.971573
  N     4.837646  8.986535  3.775330
  S     4.016920  5.315509  2.654094
  S     4.082545  8.613773  2.319856
  S     6.919590  5.574263 -0.348396
  S     7.014864  9.300553 -0.526255
  S     6.521850  6.087594  3.726842
  S     6.393452  9.629072  3.656818
