16  
    
  C     5.643082  5.259111  1.939536
  C     5.716201  9.035238  1.997913
  C     4.551134  4.462567  1.355073
  C     4.504182  8.529995  1.404593
  N     6.665198  5.397825  1.087088
  N     6.634802  9.418704  1.097144
  N     4.699102  4.288981  0.038352
  N     4.553028  8.343187  0.078613
  N     3.943656  4.962043  3.830209
  N     3.983801  8.775485  3.962443
  S     3.237776  4.191573  2.510465
  S     3.313211  8.067063  2.588900
  S     6.150409  4.949273 -0.390138
  S     5.979628  9.005892 -0.373220
  S     5.500219  5.595919  3.660584
  S     5.578167  9.217504  3.714838
