16  
    
  C    11.844627  8.698757  3.333526
  C    11.539507 12.412904  3.154700
  C    10.607567  8.145427  2.882738
  C    10.353024 11.790667  2.525516
  N    12.787065  8.834226  2.400783
  N    12.552299 12.659643  2.329851
  N    10.585633  7.953767  1.570751
  N    10.629033 11.331175  1.312742
  N    10.381637  8.606307  5.433034
  N     9.842764 11.924458  5.040121
  S     9.412455  8.092361  4.138029
  S     9.056814 11.314155  3.705525
  S    12.124410  8.254860  0.999580
  S    12.134031 12.042989  0.871362
  S    11.869479  9.101291  4.971645
  S    11.409508 12.420332  4.835536
