16  
    
  C     6.876729  5.662414  1.752669
  C     7.244941 10.019494  2.465415
  C     5.778328  5.074797  1.086123
  C     6.025821  9.467714  1.928656
  N     7.959731  5.750942  0.994491
  N     8.186609 10.147722  1.560840
  N     6.005725  4.735324 -0.168805
  N     6.014042  9.261940  0.626855
  N     4.735597  5.946328  3.267096
  N     5.556146  9.683926  4.433969
  S     4.289646  5.063827  1.965949
  S     4.694431  9.388008  3.069310
  S     7.573618  5.121380 -0.466316
  S     7.598959  9.663623  0.125010
  S     6.419831  6.232484  3.257899
  S     7.172054 10.269745  4.171179
