16  
    
  C     5.819115  5.385741  1.790405
  C     5.912173  8.923272  2.116519
  C     4.523123  5.186014  1.129345
  C     4.675639  8.592519  1.410890
  N     6.825500  5.485910  0.906268
  N     7.012691  8.981010  1.356175
  N     4.632697  4.879226 -0.156401
  N     4.855974  8.555285  0.077332
  N     3.989879  5.452887  3.621486
  N     4.154653  8.740012  4.025220
  S     3.211293  5.011827  2.233317
  S     3.379192  8.530947  2.536776
  S     6.242136  4.987143 -0.560084
  S     6.450607  8.747463 -0.190407
  S     5.749646  5.675106  3.519697
  S     5.787292  9.068215  3.859349
