16  
    
  C     3.463438  4.671737  1.527322
  C     3.684245  8.341163  1.407315
  C     2.403788  3.884893  0.972368
  C     2.423725  8.110412  0.793991
  N     4.472174  4.884714  0.675230
  N     4.710755  8.618645  0.616476
  N     2.548817  3.665476 -0.316502
  N     2.493538  8.102305 -0.538659
  N     2.011014  3.849679  3.477653
  N     1.905786  8.200803  3.330146
  S     1.196473  3.383515  2.115895
  S     1.113342  7.638241  1.929545
  S     4.007393  4.273889 -0.775657
  S     4.071537  8.449069 -0.930148
  S     3.487153  4.598911  3.275989
  S     3.515456  8.607535  3.128074
