16  
    
  C    11.008757  8.143307  3.101264
  C    11.529077 11.718586  3.184679
  C     9.814667  7.492815  2.638420
  C    10.311189 11.465751  2.466265
  N    11.961836  8.250638  2.147686
  N    12.653564 11.790931  2.454505
  N     9.899048  7.092714  1.366770
  N    10.518568 11.307099  1.168166
  N     9.479529  8.079720  5.145990
  N     9.595329 11.414126  4.953774
  S     8.624908  7.386838  3.843785
  S     8.883132 11.259362  3.426341
  S    11.328378  7.649492  0.787725
  S    12.114286 11.368089  0.897812
  S    11.051830  8.452963  4.783878
  S    11.236154 11.898126  4.886040
