16  
    
  C    11.831177  8.712407  3.550633
  C    11.623110 12.261239  3.307956
  C    10.614109  8.361610  2.882284
  C    10.434281 11.837533  2.566281
  N    12.857028  8.823798  2.715931
  N    12.727432 12.386893  2.523149
  N    10.680204  8.239301  1.578533
  N    10.687088 11.416552  1.334761
  N     9.999156  8.526171  5.331335
  N     9.586090 11.860441  5.037114
  S     9.248016  8.251193  3.915342
  S     8.976603 11.486208  3.451972
  S    12.270141  8.410734  1.186988
  S    12.279530 11.899871  0.990294
  S    11.619678  9.002280  5.236191
  S    11.196100 12.255796  4.965714
