16  
    
  C     4.264466  4.896676  1.499337
  C     4.194498  8.379389  1.382671
  C     3.017203  4.581125  0.866060
  C     3.019721  7.952455  0.748950
  N     5.282519  4.902855  0.644195
  N     5.237945  8.459765  0.562341
  N     3.079151  4.345050 -0.463408
  N     3.111127  7.682939 -0.545918
  N     2.420285  4.722391  3.386562
  N     2.413595  8.318019  3.248950
  S     1.653695  4.489888  1.933226
  S     1.640255  7.914119  1.821999
  S     4.635124  4.623542 -0.866800
  S     4.672671  8.072341 -0.935008
  S     4.075805  4.992757  3.281179
  S     4.029298  8.636782  3.085350
