16  
    
  C     9.077508  6.924345  2.313749
  C     9.055622 11.070829  2.754529
  C     7.836482  6.628042  1.610563
  C     7.809970 10.588518  2.123514
  N    10.179237  7.067724  1.562451
  N    10.071152 11.297840  1.928451
  N     8.072611  6.408578  0.301092
  N     7.994661 10.389820  0.787889
  N     7.343829  6.802141  4.240109
  N     7.344359 10.796009  4.680202
  S     6.550816  6.474115  2.815867
  S     6.585751 10.280296  3.323589
  S     9.682077  6.662246  0.029015
  S     9.554481 10.739448  0.441473
  S     8.944750  7.162800  4.041201
  S     8.889255 11.320532  4.484354
