16  
    
  C     5.066236  5.342808  1.894279
  C     5.108209  8.734406  1.448341
  C     3.814133  4.980992  1.291784
  C     3.823173  8.301903  0.879644
  N     6.097984  5.347681  1.060118
  N     6.096882  8.782128  0.558725
  N     3.906713  4.584567  0.024297
  N     3.904869  8.098507 -0.441157
  N     3.362956  5.806832  3.755899
  N     3.403963  8.809420  3.379304
  S     2.523733  5.222832  2.460142
  S     2.524368  8.341115  2.044839
  S     5.532632  4.657741 -0.318232
  S     5.427900  8.391639 -0.923240
  S     5.013800  5.757547  3.588178
  S     5.041471  8.977085  3.187758
