16  
    
  C    11.815851  8.722813  3.549933
  C    11.623829 12.247002  3.304199
  C    10.615746  8.364511  2.877143
  C    10.428050 11.838329  2.558361
  N    12.860551  8.819585  2.720809
  N    12.725644 12.377835  2.532061
  N    10.683002  8.237384  1.560488
  N    10.697153 11.419011  1.336127
  N     9.997966  8.525436  5.329998
  N     9.598763 11.858356  5.025914
  S     9.244550  8.246411  3.914529
  S     8.976348 11.496636  3.459919
  S    12.274394  8.409589  1.188797
  S    12.278776 11.899399  0.992618
  S    11.616141  8.999402  5.245334
  S    11.198490 12.242122  4.965355
