16  
    
  C     4.618648  5.035831  1.979440
  C     4.675925  8.706249  1.443824
  C     3.395232  4.704313  1.277108
  C     3.516191  8.120471  0.787096
  N     5.664354  5.369660  1.205507
  N     5.751546  8.835311  0.667537
  N     3.599231  4.584451 -0.039845
  N     3.625904  7.963036 -0.528495
  N     2.624256  4.955418  3.700422
  N     2.881409  8.323700  3.254469
  S     2.009055  4.461906  2.220968
  S     2.151187  7.937785  1.806510
  S     5.161239  4.912543 -0.313525
  S     5.228263  8.391166 -0.873872
  S     4.324845  5.190579  3.713292
  S     4.466494  8.807942  3.133693
