16  
    
  C     8.007132  6.616493  2.684666
  C     8.714850 10.266529  2.729367
  C     6.844602  6.236673  1.934123
  C     7.486274  9.864266  2.127716
  N     9.077730  6.857981  1.925858
  N     9.679429 10.422783  1.818781
  N     7.108605  5.945820  0.662235
  N     7.540264  9.701107  0.794557
  N     6.115282  6.281146  4.407119
  N     6.919186 10.184767  4.569628
  S     5.488417  5.831041  2.906379
  S     6.079020  9.879493  3.147480
  S     8.713281  6.325110  0.435452
  S     9.092268 10.047186  0.379191
  S     7.682771  6.777364  4.381470
  S     8.468399 10.769946  4.374584
