16  
    
  C     3.445989  4.636071  1.506676
  C     3.639061  8.370141  1.392609
  C     2.367501  3.861409  0.921921
  C     2.352930  8.063444  0.723643
  N     4.497235  4.846807  0.736670
  N     4.627603  8.646706  0.533499
  N     2.611636  3.594849 -0.368249
  N     2.450179  8.056815 -0.604759
  N     2.022066  3.836471  3.481448
  N     1.900897  8.216253  3.280449
  S     1.156582  3.391132  2.156984
  S     1.126187  7.676411  1.936228
  S     4.053337  4.293311 -0.768110
  S     4.028722  8.438234 -1.009481
  S     3.488829  4.582753  3.192584
  S     3.476029  8.622935  3.089943
