16  
    
  C     6.452984  5.716056  2.056029
  C     6.111771  9.271181  1.831452
  C     5.267548  5.368845  1.390528
  C     4.940872  8.806233  1.168089
  N     7.474480  5.957845  1.246600
  N     7.148169  9.337970  1.010555
  N     5.403314  5.107702  0.089532
  N     5.013331  8.655234 -0.157832
  N     4.675058  5.724329  3.937979
  N     4.298288  8.890723  3.675138
  S     3.984371  5.178477  2.469586
  S     3.585605  8.546524  2.183799
  S     6.967357  5.502072 -0.267712
  S     6.592998  8.934604 -0.512274
  S     6.243558  6.105978  3.745148
  S     5.960444  9.361362  3.576971
