16  
    
  C     5.486605  5.292057  1.799842
  C     5.072578  9.095983  1.674345
  C     4.201206  5.171129  1.204678
  C     3.887250  8.535694  1.043640
  N     6.440557  5.480024  0.874843
  N     6.137217  9.240731  0.874751
  N     4.196169  4.989469 -0.113259
  N     4.022460  8.325794 -0.268440
  N     3.779133  5.342557  3.668896
  N     3.354876  8.747229  3.530904
  S     2.875653  5.207570  2.294888
  S     2.579365  8.302799  2.156364
  S     5.757434  5.216252 -0.600420
  S     5.578569  8.762228 -0.605668
  S     5.417423  5.406777  3.592357
  S     4.984207  8.974526  3.380626
