16  
    
  C     9.360931  7.014675  2.906260
  C     9.619648 10.829166  2.618927
  C     8.181853  6.528446  2.232398
  C     8.513317 10.206570  1.973720
  N    10.355614  7.289233  2.083446
  N    10.600771 11.198229  1.813781
  N     8.230404  6.542711  0.911244
  N     8.584744 10.231097  0.669839
  N     7.562848  6.566708  4.731926
  N     7.987453 10.282567  4.489923
  S     6.900030  5.951068  3.310750
  S     7.242183  9.763218  3.127908
  S     9.762739  7.023197  0.541211
  S    10.018163 10.892665  0.253190
  S     9.150932  6.917926  4.641834
  S     9.535848 10.875567  4.342409
