16  
    
  C     4.552222  5.186951  1.643692
  C     4.419131  8.474685  1.484325
  C     3.286331  4.819912  1.039759
  C     3.248540  7.914901  0.894965
  N     5.520330  5.270504  0.732649
  N     5.466199  8.522112  0.664513
  N     3.329441  4.493501 -0.241819
  N     3.378434  7.680153 -0.415109
  N     2.768129  4.871935  3.571163
  N     2.623144  8.710479  3.256948
  S     2.026658  4.465817  2.130912
  S     1.890110  7.884593  2.025682
  S     4.888886  4.884085 -0.798816
  S     4.928945  8.035560 -0.816050
  S     4.337695  5.432510  3.423489
  S     4.220029  8.888664  3.201096
