16  
    
  C    11.030453  7.664482  3.138410
  C    11.150145 11.759314  2.786978
  C     9.698709  7.407865  2.501352
  C     9.944669 11.206229  2.219377
  N    12.054720  7.880275  2.321909
  N    12.132085 11.918539  1.924005
  N     9.750565  7.472123  1.188046
  N    10.045168 10.847960  0.947525
  N     9.185144  7.713514  5.032763
  N     9.467383 11.679951  4.718755
  S     8.388123  7.155006  3.586130
  S     8.684603 10.919133  3.427004
  S    11.347476  7.708502  0.772154
  S    11.610618 11.382448  0.450809
  S    10.887099  7.675211  4.851536
  S    11.078190 12.074685  4.482079
