16  
    
  C     9.074806  6.925673  2.307472
  C     9.047087 11.083602  2.769327
  C     7.846783  6.595541  1.609605
  C     7.818775 10.601688  2.129790
  N    10.167374  7.037082  1.557312
  N    10.054226 11.294757  1.934400
  N     8.074579  6.399289  0.297204
  N     7.973593 10.385192  0.808907
  N     7.355538  6.791845  4.241557
  N     7.350786 10.807289  4.693044
  S     6.560562  6.469476  2.828740
  S     6.582220 10.275425  3.338511
  S     9.687506  6.638637  0.040488
  S     9.565575 10.735059  0.460352
  S     8.955403  7.178602  4.035778
  S     8.885456 11.327394  4.502876
