16  
    
  C     8.480079  6.857245  2.366585
  C     8.943463 10.209279  2.732467
  C     7.332220  6.444694  1.621152
  C     7.677355  9.952419  2.113088
  N     9.535946  7.124808  1.602868
  N     9.935578 10.358722  1.901567
  N     7.614216  6.226286  0.335156
  N     7.727137  9.962106  0.778168
  N     6.693176  6.478964  4.146665
  N     7.176433 10.289190  4.582555
  S     5.986513  5.966022  2.680136
  S     6.340231  9.879500  3.231201
  S     9.195972  6.633462  0.100827
  S     9.334958 10.209095  0.385758
  S     8.280934  6.983933  4.052613
  S     8.787510 10.556633  4.397187
