16  
    
  C    10.898433  8.143249  3.263547
  C    10.695765 11.925631  3.250143
  C     9.751250  7.590620  2.654646
  C     9.548973 11.279276  2.740036
  N    11.877519  8.444820  2.376944
  N    11.574286 12.294824  2.309953
  N     9.808133  7.424256  1.322852
  N     9.617052 11.062013  1.431883
  N     9.209967  7.729096  5.155862
  N     9.119197 11.573797  5.233945
  S     8.395482  7.388266  3.776170
  S     8.276878 11.039969  3.898504
  S    11.317713  7.888620  0.948451
  S    10.932417 11.785628  0.856911
  S    10.739163  8.416316  4.947929
  S    10.636073 12.099443  4.958463
