16  
    
  C    12.726985  9.249008  3.356039
  C    12.652858 12.958320  3.539644
  C    11.504042  8.759601  2.767846
  C    11.556307 12.403531  2.781735
  N    13.754507  9.243855  2.515511
  N    13.729418 13.151336  2.771323
  N    11.561928  8.591302  1.456622
  N    11.828456 12.184286  1.489895
  N    11.072665  8.905410  5.303820
  N    10.829220 12.538639  5.304335
  S    10.158650  8.525831  3.961515
  S    10.119159 12.020398  3.818244
  S    13.219281  8.773033  1.026340
  S    13.408127 12.657664  1.234997
  S    12.627606  9.498769  5.037618
  S    12.357024 13.251535  5.233881
