16  
    
  C     5.276054  5.466497  1.738479
  C     5.126847  8.863568  1.298935
  C     4.010417  4.972513  1.309872
  C     3.844476  8.496116  0.750253
  N     6.209163  5.398920  0.787627
  N     6.105705  8.947224  0.409041
  N     3.874648  4.785331 -0.012939
  N     3.890717  8.113268 -0.528652
  N     3.677074  5.398628  3.841931
  N     3.496476  8.933434  3.288221
  S     2.757323  5.222584  2.432560
  S     2.627421  8.289047  1.997041
  S     5.418850  4.929441 -0.617806
  S     5.500237  8.429549 -1.027638
  S     5.237828  5.968630  3.444583
  S     5.093963  9.295661  2.976354
