16  
    
  C    12.051131  8.683010  3.358296
  C    11.982704 12.069238  3.238793
  C    10.752058  8.474780  2.706692
  C    10.594922 11.838726  2.755244
  N    13.035311  8.753714  2.492014
  N    12.854742 12.366390  2.251705
  N    10.812080  8.370067  1.382083
  N    10.517455 11.809055  1.425359
  N    10.262505  8.438683  5.266359
  N    10.282452 12.064925  5.167575
  S     9.454475  8.257338  3.802513
  S     9.329785 11.787148  3.847210
  S    12.405044  8.644158  0.984747
  S    12.021683 12.088723  0.821513
  S    11.883340  8.727999  5.138490
  S    11.960964 12.213271  5.031900
