16  
    
  C     9.313244  6.622243  2.397065
  C     9.356790 10.575254  2.824894
  C     8.118382  6.201697  1.666587
  C     8.077184 10.363107  2.125001
  N    10.419357  6.663735  1.630663
  N    10.438988 10.298204  2.056012
  N     8.330498  6.085877  0.346434
  N     8.242625 10.067835  0.824926
  N     7.352287  6.808193  4.098703
  N     7.479221 10.975018  4.604210
  S     6.676877  6.202865  2.727493
  S     6.722497 10.710371  3.160436
  S     9.936451  6.339880  0.079491
  S     9.863474  9.915211  0.552111
  S     9.013319  7.008204  4.104274
  S     9.156993 10.980898  4.530187
