16  
    
  C     7.814001  6.358763  2.170958
  C     8.086373 10.503032  2.192780
  C     6.579407  5.936292  1.488202
  C     6.888017  9.916150  1.591425
  N     8.845560  6.650499  1.382737
  N     9.057898 10.736442  1.325827
  N     6.755926  5.864419  0.170273
  N     6.994032  9.788615  0.247640
  N     6.146061  5.947876  3.996467
  N     6.427723 10.230110  4.105646
  S     5.304598  5.524534  2.619255
  S     5.606483  9.649566  2.759594
  S     8.366941  6.278449 -0.146296
  S     8.618939 10.241091 -0.138754
  S     7.752571  6.387683  3.853808
  S     7.891128 10.943246  3.814096
