16  
    
  C     5.064621  5.121493  1.857110
  C     5.121201  8.601788  1.919490
  C     3.729683  4.910764  1.287063
  C     3.893463  8.365582  1.246519
  N     6.074386  5.075795  0.999685
  N     6.189772  8.638977  1.130833
  N     3.791253  4.847420 -0.049853
  N     4.018770  7.989601 -0.017106
  N     3.519249  4.725157  3.839365
  N     3.250997  8.746500  3.707808
  S     2.468225  4.842528  2.565802
  S     2.496073  8.433795  2.239154
  S     5.366832  5.044896 -0.508600
  S     5.607691  8.182215 -0.376977
  S     5.169794  5.032907  3.548957
  S     4.911234  9.006348  3.567674
