16  
    
  C     5.670358  5.232168  1.940492
  C     5.723374  9.063150  2.003615
  C     4.551164  4.466681  1.351402
  C     4.502514  8.515144  1.404746
  N     6.680093  5.409058  1.089962
  N     6.644946  9.444286  1.099323
  N     4.700441  4.283853  0.044893
  N     4.585748  8.338516  0.083147
  N     3.942726  4.936598  3.849197
  N     3.972206  8.766064  3.975151
  S     3.239834  4.197854  2.468872
  S     3.303855  8.082282  2.614093
  S     6.163983  4.925854 -0.383371
  S     5.978196  9.009787 -0.368629
  S     5.500620  5.580815  3.651657
  S     5.590783  9.237132  3.706357
