16  
    
  C    12.878979  9.196599  3.417145
  C    13.003465 12.845736  3.464716
  C    11.740471  8.574560  2.844077
  C    11.751614 12.413972  2.892868
  N    13.906600  9.439853  2.584285
  N    14.005301 12.977993  2.587135
  N    11.919180  8.245390  1.582159
  N    11.829355 12.077200  1.610345
  N    10.908688  9.169120  5.272077
  N    11.210947 13.041787  5.355331
  S    10.413312  8.405512  3.864082
  S    10.376071 12.576203  3.979587
  S    13.417846  8.821694  1.063286
  S    13.379189 12.467692  1.205879
  S    12.586372  9.540231  5.136391
  S    12.804223 13.441440  5.143901
