16  
    
  C    10.404137  7.611172  2.586527
  C    10.438058 11.433541  2.719710
  C     9.074172  7.454631  2.023914
  C     9.190985 11.190383  1.998820
  N    11.423298  7.418893  1.785276
  N    11.549489 11.294798  1.986692
  N     9.084035  7.220234  0.730850
  N     9.351478 11.007471  0.675412
  N     8.755843  7.812470  4.593319
  N     8.607864 11.258878  4.501106
  S     7.849386  7.319603  3.271968
  S     7.851539 11.393834  3.043943
  S    10.733322  7.203192  0.275157
  S    10.984271 10.991404  0.391702
  S    10.352795  7.770286  4.290738
  S    10.212601 11.575859  4.412385
