16  
    
  C     7.655500  6.233171  2.257636
  C     7.723589 10.145617  2.458116
  C     6.341948  5.911961  1.708104
  C     6.574102  9.534849  1.772258
  N     8.570989  6.407675  1.334244
  N     8.744971 10.360850  1.649327
  N     6.365085  5.774841  0.400256
  N     6.772577  9.339954  0.499437
  N     5.974837  6.305988  4.159284
  N     6.084367  9.527056  4.274351
  S     5.105183  5.660408  2.926357
  S     5.259232  9.247979  2.895871
  S     7.915084  6.195819 -0.137560
  S     8.348377  9.942254  0.151523
  S     7.624868  6.474954  3.940779
  S     7.563560 10.258953  4.146600
