16  
    
  C     6.590497  5.854244  2.081917
  C     6.181977  9.195287  1.861199
  C     5.451709  5.250283  1.455976
  C     4.979980  8.823106  1.208089
  N     7.641709  6.013955  1.274793
  N     7.220594  9.429015  1.077735
  N     5.574924  5.078989  0.139948
  N     5.140970  8.651430 -0.104910
  N     4.661934  5.708756  3.829329
  N     4.346940  9.016034  3.651115
  S     3.980657  5.103044  2.453262
  S     3.625361  8.526417  2.277754
  S     7.078510  5.613129 -0.263677
  S     6.761753  9.011527 -0.435602
  S     6.294904  6.047823  3.821161
  S     5.937870  9.316185  3.580861
