16  
    
  C    10.934662  7.749249  3.158775
  C    11.418673 11.880545  2.985124
  C     9.811314  7.498399  2.337101
  C    10.289110 11.159328  2.422529
  N    12.102376  7.865393  2.506193
  N    12.400779 12.034164  2.108173
  N    10.046987  7.401059  1.009688
  N    10.406582 10.767380  1.142196
  N     8.992086  7.624288  4.818405
  N     9.870043 11.475120  4.976754
  S     8.341703  7.460944  3.240890
  S     9.072376 10.908346  3.609240
  S    11.697740  7.603179  0.877213
  S    11.933627 11.408974  0.708927
  S    10.617317  7.862802  4.854991
  S    11.304420 12.334191  4.631017
