16  
    
  C    10.983779  7.873558  3.061714
  C    10.937864 11.741531  2.737932
  C     9.715780  7.337735  2.597842
  C     9.777640 11.177837  2.154776
  N    11.854998  8.188775  2.069528
  N    11.966599 11.819233  1.892883
  N     9.688314  7.258315  1.255628
  N     9.871397 10.931303  0.845515
  N     9.463950  7.517858  5.124619
  N     9.353208 11.201093  4.685818
  S     8.509728  7.088537  3.805731
  S     8.454003 11.028232  3.246428
  S    11.153045  7.709962  0.698273
  S    11.339424 11.421878  0.374463
  S    11.018391  8.094821  4.796607
  S    10.898676 11.932645  4.473648
