16  
    
  C     3.690185  4.788194  1.584723
  C     3.883727  8.339145  1.695937
  C     2.453160  4.385111  0.970805
  C     2.629689  7.884940  1.093191
  N     4.643214  5.056542  0.667357
  N     4.888241  8.426745  0.828602
  N     2.557517  4.097044 -0.311283
  N     2.655014  7.869217 -0.253221
  N     1.832243  4.323454  3.484821
  N     2.140634  8.117486  3.623842
  S     1.160162  3.816743  2.032084
  S     1.305070  7.871813  2.237656
  S     3.974802  4.609251 -0.846767
  S     4.214695  8.142664 -0.699076
  S     3.488795  4.762331  3.379035
  S     3.763250  8.478085  3.429059
