16  
    
  C     7.806381  6.370928  2.179471
  C     8.088761 10.486986  2.146970
  C     6.658256  5.982148  1.480670
  C     6.890642  9.960416  1.592939
  N     8.885623  6.624318  1.408172
  N     9.129885 10.657363  1.337644
  N     6.809701  5.870277  0.144598
  N     6.974863  9.766187  0.261317
  N     6.020049  6.127789  4.057865
  N     6.425457 10.252336  4.132679
  S     5.370137  5.570088  2.638769
  S     5.659980  9.663512  2.787223
  S     8.380221  6.307355 -0.127525
  S     8.443892 10.220932 -0.201605
  S     7.657714  6.391718  3.901479
  S     7.904710 10.975602  3.815152
