16  
    
  C    12.786002  8.961813  3.836008
  C    12.548638 12.737949  3.985856
  C    11.526400  8.484673  3.234884
  C    11.456054 12.121297  3.234767
  N    13.718780  9.234079  2.920126
  N    13.576386 13.047835  3.219927
  N    11.612051  8.164613  1.949855
  N    11.661793 12.030293  1.932837
  N    11.030227  8.532604  5.665430
  N    10.673202 12.278973  5.651774
  S    10.181395  8.137473  4.298306
  S     9.986123 11.893510  4.148991
  S    13.110912  8.743575  1.400442
  S    13.215091 12.575088  1.697722
  S    12.559123  9.023032  5.582794
  S    12.242488 12.934834  5.696571
