16  
    
  C    12.753466  8.823059  3.850396
  C    12.622924 12.779808  3.877609
  C    11.495292  8.372498  3.251684
  C    11.480769 12.278796  3.123461
  N    13.681435  9.261608  3.043958
  N    13.707560 12.913500  3.137311
  N    11.554482  8.328624  1.934822
  N    11.743010 12.021471  1.838815
  N    11.104735  8.598513  5.746334
  N    10.745654 12.371162  5.630954
  S    10.281827  8.078526  4.409515
  S    10.166538 11.845389  4.202669
  S    13.105027  8.926732  1.514119
  S    13.304535 12.526636  1.599404
  S    12.598717  9.111694  5.548309
  S    12.378677 12.661989  5.607129
