16  
    
  C     6.650341  5.663812  1.938543
  C     6.632492  9.490966  2.024757
  C     5.389262  5.485823  1.343529
  C     5.383370  9.103372  1.465444
  N     7.691874  5.804128  1.108968
  N     7.625474  9.592688  1.154204
  N     5.421536  5.332213  0.024245
  N     5.391925  8.928051  0.129304
  N     4.980612  5.862472  3.908356
  N     5.089193  9.343391  4.087691
  S     4.164990  5.411848  2.520623
  S     4.145659  9.045058  2.778720
  S     7.014275  5.614213 -0.390369
  S     6.932352  9.380953 -0.328941
  S     6.591910  5.937125  3.661379
  S     6.626324  9.824858  3.757915
