16  
    
  C    11.010620  8.065786  3.081320
  C    11.540374 11.791643  3.190551
  C     9.819023  7.446926  2.618294
  C    10.379649 11.381593  2.422905
  N    11.920000  8.245444  2.163644
  N    12.626757 11.714345  2.423791
  N     9.841632  7.130881  1.330893
  N    10.542322 11.202429  1.111070
  N     9.413923  8.048363  5.053474
  N     9.594208 11.437583  4.914468
  S     8.630295  7.353905  3.851213
  S     8.942815 11.203488  3.382685
  S    11.302870  7.621150  0.777738
  S    12.171742 11.442503  0.906332
  S    10.997718  8.458079  4.795884
  S    11.214324 11.927630  4.892567
