16  
    
  C    10.805301  7.909288  3.113383
  C    10.580094 12.006956  3.154791
  C     9.561194  7.522471  2.578964
  C     9.441543 11.266236  2.692758
  N    11.794968  8.108037  2.216237
  N    11.452565 12.315512  2.205823
  N     9.540193  7.422974  1.242490
  N     9.408558 11.044964  1.385442
  N     9.166825  7.643646  5.143999
  N     9.157191 11.651299  5.227487
  S     8.334684  7.106894  3.736898
  S     8.304766 10.925079  4.015839
  S    11.122086  7.805276  0.726287
  S    10.821139 11.639871  0.795372
  S    10.770124  7.915357  4.847644
  S    10.707565 12.156725  4.873338
