16  
    
  C     8.918285  6.977979  2.244428
  C     9.003271 10.552170  2.440720
  C     7.699089  6.525725  1.571851
  C     7.772489 10.072641  1.812794
  N     9.929567  7.206514  1.436552
  N     9.999640 10.701737  1.608858
  N     7.899015  6.346709  0.265460
  N     7.888078  9.819537  0.503899
  N     7.178110  6.711583  4.111021
  N     7.305009 10.366174  4.284745
  S     6.393664  6.294805  2.744209
  S     6.425227 10.095112  2.886928
  S     9.459360  6.759228 -0.083378
  S     9.471690 10.219933  0.074477
  S     8.787188  7.228290  3.909725
  S     8.907155 10.767583  4.117843
