16  
    
  C     4.519210  4.951364  1.216563
  C     4.282657  8.520339  1.544012
  C     3.236673  4.646836  0.691756
  C     3.152470  8.098783  0.741536
  N     5.423164  5.221741  0.250494
  N     5.355887  8.784522  0.802110
  N     3.140443  4.497621 -0.636200
  N     3.397003  8.102627 -0.579729
  N     2.670252  4.904448  3.203264
  N     2.349828  7.948988  3.198805
  S     1.905269  4.711112  1.758680
  S     1.718927  7.679589  1.725731
  S     4.656917  4.823559 -1.192599
  S     5.004484  8.521119 -0.760056
  S     4.302575  5.140032  3.030358
  S     3.952832  8.462438  3.276782
