16  
    
  C     9.255546  6.776889  2.393707
  C     9.496572 10.567342  2.833317
  C     8.076868  6.343728  1.667245
  C     8.200063 10.258980  2.184156
  N    10.317108  6.924469  1.605220
  N    10.531705 10.451961  1.957462
  N     8.259027  6.115714  0.364895
  N     8.258489 10.009273  0.875262
  N     7.452424  6.514257  4.167129
  N     7.719974 10.819497  4.656722
  S     6.714887  6.155047  2.699487
  S     6.855497 10.520137  3.240679
  S     9.896230  6.465378  0.097907
  S     9.919640 10.070348  0.509460
  S     9.069259  6.756298  4.113988
  S     9.398093 10.902585  4.480020
