16  
    
  C    12.513760  9.147054  3.438994
  C    12.333580 12.788917  3.536369
  C    11.391742  8.541132  2.704193
  C    11.131047 12.180227  3.016530
  N    13.503665  9.420285  2.601838
  N    13.247154 13.092017  2.606156
  N    11.467960  8.398798  1.360609
  N    11.238068 11.851536  1.725887
  N    10.676426  8.462034  5.221816
  N    10.709993 12.337434  5.535412
  S    10.005374  8.236031  3.674073
  S     9.889750 11.891300  4.134006
  S    13.075887  8.911964  1.073399
  S    12.552187 12.613096  1.155743
  S    12.286790  9.072056  5.174574
  S    12.138184 13.118174  5.244525
