16  
    
  C    11.108847  8.293738  2.926414
  C    10.807832 11.732215  2.990474
  C     9.958346  7.493690  2.483754
  C     9.600224 11.326653  2.317033
  N    11.928305  8.627367  1.935016
  N    11.831697 11.914503  2.194712
  N    10.015455  7.262714  1.178639
  N     9.773164 11.145099  1.013852
  N     9.495085  7.974874  5.010824
  N     9.167471 11.268991  4.863759
  S     8.726616  7.229258  3.661793
  S     8.334049 10.899775  3.507565
  S    11.397187  7.903610  0.578707
  S    11.276319 11.629772  0.652003
  S    10.972674  8.669015  4.646637
  S    10.706443 11.885240  4.727781
