16  
    
  C    11.348724  8.761440  3.212487
  C    11.363690 12.350594  3.301425
  C    10.250375  8.016528  2.680910
  C    10.247191 11.788046  2.543928
  N    12.336512  9.060116  2.383991
  N    12.505182 12.426870  2.622914
  N    10.398949  7.633926  1.410448
  N    10.510435 11.688412  1.238960
  N     9.776737  8.398605  5.241964
  N     9.662542 11.767913  4.979486
  S     9.028910  7.755421  3.887543
  S     8.888950 11.384543  3.598069
  S    11.941201  8.234522  0.982991
  S    12.079251 12.214507  0.980317
  S    11.236548  9.126371  4.962438
  S    11.089595 12.547660  4.956073
