16  
    
  C     8.389541  6.619652  2.583256
  C     8.809828 10.448853  2.812491
  C     7.216448  6.132910  1.862853
  C     7.577220 10.046872  2.173933
  N     9.411285  6.927889  1.770377
  N     9.812176 10.608047  1.933687
  N     7.429968  5.995600  0.560819
  N     7.677655  9.887213  0.867039
  N     6.412660  6.279705  4.279207
  N     6.960698 10.332085  4.624129
  S     5.759319  5.879069  2.737441
  S     6.233742  9.954992  3.202268
  S     8.968403  6.526463  0.231630
  S     9.251894 10.161174  0.505543
  S     7.964224  6.876485  4.311347
  S     8.610653 10.497033  4.570227
