16  
    
  C    12.077164  8.587156  3.560811
  C    11.979115 12.264289  3.254680
  C    10.879072  8.060712  2.932384
  C    10.671749 11.878222  2.699415
  N    13.097671  8.798724  2.721747
  N    12.961466 12.315947  2.348380
  N    10.984256  7.980584  1.619637
  N    10.720668 11.493884  1.435757
  N    10.195940  8.323564  5.379204
  N    10.298238 11.927601  5.127449
  S     9.501874  7.903130  3.979555
  S     9.368307 11.543727  3.823674
  S    12.563272  8.332737  1.247597
  S    12.252906 11.833005  0.876958
  S    11.780168  8.813722  5.282080
  S    11.858627 12.196398  4.992629
