16  
    
  C     6.564625  5.878120  2.116952
  C     6.309251  9.178290  1.969395
  C     5.464697  5.216271  1.410185
  C     5.130036  8.728990  1.194118
  N     7.624730  6.132193  1.354958
  N     7.340276  9.459299  1.176421
  N     5.622806  5.115405  0.085178
  N     5.321397  8.598867 -0.109693
  N     4.747033  5.449369  3.913410
  N     4.480526  8.938667  3.636415
  S     4.127801  5.128730  2.460538
  S     3.729593  8.581280  2.207409
  S     7.189890  5.646144 -0.150965
  S     6.862826  9.163859 -0.372742
  S     6.337298  6.051570  3.819028
  S     6.053103  9.405035  3.651563
