16  
    
  C     6.612343  5.769558  2.141761
  C     6.200536  9.224392  1.881861
  C     5.458028  5.312170  1.437541
  C     5.054218  8.720042  1.188504
  N     7.607542  6.120256  1.334368
  N     7.326229  9.415590  1.203132
  N     5.656745  5.061210  0.140202
  N     5.278054  8.606006 -0.129394
  N     4.725309  5.574947  3.919589
  N     4.408868  9.006956  3.714158
  S     4.029972  5.085899  2.424108
  S     3.658241  8.549047  2.215639
  S     7.176504  5.654619 -0.222995
  S     6.820683  9.119540 -0.391186
  S     6.345387  6.054760  3.832379
  S     6.037345  9.364447  3.623696
