16  
    
  C     9.726307  7.545441  2.847103
  C     9.953575 11.165148  2.763838
  C     8.570203  6.994167  2.120077
  C     8.658244 10.842586  2.090007
  N    10.788657  7.820345  2.108495
  N    10.921826 11.333772  1.905383
  N     8.790495  6.824139  0.811323
  N     8.738993 10.681466  0.798593
  N     7.794485  7.438643  4.613932
  N     8.227170 11.200424  4.633849
  S     7.184257  6.720842  3.215280
  S     7.359034 10.848491  3.224217
  S    10.365797  7.357045  0.553319
  S    10.319983 11.011296  0.363774
  S     9.387600  7.969548  4.439906
  S     9.878573 11.229854  4.465763
