16  
    
  C     8.626040  7.271386  2.673814
  C     8.917240 11.091288  2.244633
  C     7.462264  6.666666  2.129813
  C     7.769099 10.611137  1.535175
  N     9.564324  7.530840  1.772532
  N     9.930103 11.375155  1.422471
  N     7.556963  6.378126  0.829379
  N     7.885128 10.562954  0.193329
  N     7.081735  6.967092  4.637917
  N     7.258201 10.395658  4.051229
  S     6.364115  6.179013  3.372588
  S     6.476560 10.153891  2.595032
  S     9.033676  6.923192  0.367155
  S     9.444066 11.130577 -0.079429
  S     8.658904  7.465268  4.407335
  S     8.789962 11.032437  3.953816
