16  
    
  C     4.244882  4.853025  1.599767
  C     4.115941  8.349533  1.479980
  C     2.979642  4.603481  1.023089
  C     2.920464  7.885306  0.814734
  N     5.255438  4.831317  0.754452
  N     5.155119  8.572510  0.684134
  N     2.999284  4.347053 -0.269581
  N     3.057230  7.664220 -0.474282
  N     2.373842  4.676293  3.405365
  N     2.260124  8.345221  3.237813
  S     1.644118  4.404273  1.991811
  S     1.492957  7.953703  1.824712
  S     4.536023  4.479984 -0.760984
  S     4.628221  8.083045 -0.857327
  S     4.017484  5.006132  3.342046
  S     3.943918  8.642280  3.169302
