16  
    
  C     6.886753  5.826241  2.195878
  C     7.160128  9.791897  2.285531
  C     5.823722  5.480376  1.289151
  C     5.968811  9.445027  1.603348
  N     8.096878  6.010187  1.652662
  N     8.253242  9.986579  1.536625
  N     6.250060  5.172912  0.056636
  N     6.125843  9.369844  0.265034
  N     4.757945  5.585933  3.676967
  N     5.485277  9.413080  4.128712
  S     4.324669  5.275362  2.111273
  S     4.663032  9.379995  2.787645
  S     7.869778  5.549203  0.066574
  S     7.709589  9.704391 -0.034391
  S     6.320128  6.157023  3.833511
  S     7.062819 10.034418  3.998804
