16  
    
  C    12.525107  8.982096  3.399964
  C    12.240545 12.872964  3.636192
  C    11.356663  8.428312  2.778909
  C    11.141001 12.157528  3.044036
  N    13.592745  9.204279  2.644387
  N    13.161955 13.227102  2.767231
  N    11.488776  8.269374  1.459905
  N    11.242962 11.998594  1.717897
  N    10.792614  8.690006  5.377573
  N    10.635883 12.392872  5.607276
  S     9.970668  8.240490  3.896159
  S     9.809858 11.785140  4.230672
  S    13.104345  8.865006  1.109936
  S    12.734778 12.603122  1.298101
  S    12.480168  9.059099  5.141150
  S    12.102168 13.149035  5.327395
