16  
    
  C     7.746952  6.549806  2.468671
  C     7.797290 10.046744  2.102161
  C     6.490240  6.182039  1.790272
  C     6.533909  9.870434  1.393464
  N     8.816549  6.686654  1.659466
  N     8.891614 10.018254  1.311958
  N     6.683045  5.826717  0.489584
  N     6.683884  9.788409  0.055488
  N     5.854342  6.771761  4.209503
  N     6.051791 10.167077  3.962785
  S     5.111473  6.147835  2.891020
  S     5.195738  9.948965  2.593053
  S     8.317916  6.157970  0.168375
  S     8.287548  9.800026 -0.252993
  S     7.492530  7.072149  4.078310
  S     7.680202 10.456456  3.726232
