16  
    
  C     5.323870  5.419789  1.674370
  C     5.150387  9.030974  1.306188
  C     3.990965  5.192952  1.199656
  C     3.930479  8.454993  0.762219
  N     6.269649  5.508376  0.733208
  N     6.192651  8.935500  0.479098
  N     3.955535  4.886303 -0.120365
  N     4.010930  8.234425 -0.558847
  N     3.791819  5.484398  3.719459
  N     3.452241  8.935473  3.266491
  S     2.783922  5.082882  2.485119
  S     2.716139  8.249982  1.994065
  S     5.491117  5.049752 -0.676356
  S     5.583184  8.405917 -0.960042
  S     5.342789  5.893504  3.381238
  S     5.022257  9.367239  2.983839
