16  
    
  C     3.980198  4.669381  1.683710
  C     3.950306  8.510539  1.546969
  C     2.719915  4.505596  0.986930
  C     2.817447  7.951663  0.890828
  N     5.059138  4.706987  0.898155
  N     5.058243  8.470044  0.821231
  N     2.887486  4.190158 -0.298777
  N     2.972074  7.727411 -0.428292
  N     2.278891  4.838335  3.585693
  N     2.037124  8.349704  3.360389
  S     1.463438  4.347959  2.260843
  S     1.402605  7.892020  1.902779
  S     4.582728  4.343103 -0.645151
  S     4.587133  8.044650 -0.721912
  S     3.985143  4.977479  3.357186
  S     3.689238  8.678000  3.277220
