16  
    
  C     8.787439  7.362246  2.464810
  C     9.177859 10.780642  2.187311
  C     7.688437  6.868709  1.726790
  C     7.930770 10.579628  1.565403
  N     9.810559  7.631238  1.657472
  N    10.176603 10.769862  1.319206
  N     7.752277  6.984526  0.401885
  N     7.902378 10.551210  0.227716
  N     7.042645  6.687820  4.187872
  N     7.398484 10.704555  4.092467
  S     6.409670  6.266936  2.671188
  S     6.590893 10.423706  2.658002
  S     9.285618  7.397638  0.126717
  S     9.554009 10.636940 -0.166043
  S     8.622929  7.115721  4.205294
  S     9.062698 10.845066  3.935254
