16  
    
  C    10.070035  7.743443  2.657995
  C    10.589535 11.481806  3.044683
  C     9.006671  7.006954  2.032385
  C     9.422071 11.171899  2.202305
  N    11.071837  8.015196  1.839536
  N    11.716992 11.528092  2.370487
  N     9.187471  6.688927  0.750773
  N     9.665058 11.010129  0.925161
  N     8.225378  7.689930  4.454622
  N     8.561408 11.429411  4.633389
  S     7.633206  6.850818  3.113758
  S     7.915480 11.331762  3.097011
  S    10.710312  7.380042  0.338257
  S    11.277509 11.269309  0.723966
  S     9.863814  8.139201  4.314927
  S    10.215725 11.573903  4.747543
