16  
    
  C     6.871327  5.722658  1.614027
  C     7.282975 10.016187  2.492200
  C     5.696042  5.139997  0.945849
  C     6.016425  9.521262  1.924727
  N     7.909463  5.789910  0.811859
  N     8.211592 10.098051  1.552010
  N     5.907769  4.660844 -0.278339
  N     6.003731  9.175221  0.654185
  N     4.947170  5.772901  3.319163
  N     5.675171  9.687204  4.463113
  S     4.296573  4.961594  2.012242
  S     4.743243  9.471308  3.095771
  S     7.468133  5.104135 -0.663422
  S     7.558511  9.557234  0.119966
  S     6.514950  6.390067  3.225332
  S     7.145729 10.288651  4.238795
