16  
    
  C     6.038878  5.647434  2.087290
  C     6.051159  9.133528  1.578959
  C     4.737136  5.388780  1.519007
  C     4.807429  8.706213  0.944575
  N     7.089137  5.549597  1.273846
  N     7.053651  9.385319  0.735493
  N     4.744873  5.250420  0.188050
  N     4.936215  8.451434 -0.357415
  N     4.437867  5.844624  4.063574
  N     4.212177  9.169454  3.411577
  S     3.528537  5.718077  2.682015
  S     3.450240  8.686300  2.076220
  S     6.389791  5.344536 -0.216585
  S     6.469545  8.843300 -0.788772
  S     6.007079  5.872673  3.798285
  S     5.878739  9.463181  3.287522
