16  
    
  C    11.368696  8.324725  3.342178
  C    11.435760 12.022206  3.325537
  C    10.173872  7.867879  2.715668
  C    10.102496 11.730998  2.855804
  N    12.501248  8.339752  2.598545
  N    12.324664 12.023486  2.334220
  N    10.354036  7.522169  1.431280
  N    10.013953 11.380826  1.580401
  N     9.421426  8.320561  5.134354
  N     9.883348 12.068376  5.426309
  S     8.718821  7.801278  3.684940
  S     8.894863 11.839126  4.073596
  S    11.935099  7.854149  1.077094
  S    11.567117 11.413813  1.016343
  S    11.121563  8.625881  5.057898
  S    11.437765 12.598714  4.945456
