16  
    
  C     6.867972  6.039425  2.349424
  C     7.257196  9.657012  2.084755
  C     5.796218  5.432222  1.610615
  C     6.026740  9.337190  1.448075
  N     7.840587  6.570511  1.604285
  N     8.281434  9.814051  1.272607
  N     5.971970  5.334061  0.293255
  N     6.096260  9.301610  0.127106
  N     4.907130  5.522080  4.067584
  N     5.454090  9.794989  3.956637
  S     4.447411  4.866792  2.617621
  S     4.639348  9.351144  2.623498
  S     7.433009  6.086080  0.053559
  S     7.698820  9.491362 -0.262744
  S     6.506344  6.142437  4.021992
  S     7.200647  9.766985  3.815318
