16  
    
  C    12.292139  9.150283  3.388840
  C    12.127785 12.507061  3.507464
  C    11.084195  8.710194  2.765173
  C    11.001637 12.068081  2.786387
  N    13.375894  9.286234  2.625302
  N    13.197440 12.732129  2.768955
  N    11.271882  8.389946  1.515374
  N    11.150519 12.010525  1.470206
  N    10.502570  8.926211  5.348136
  N    10.246913 12.433048  5.199248
  S     9.785495  8.330505  3.883765
  S     9.564749 11.991156  3.821838
  S    12.832681  8.771259  1.066357
  S    12.751674 12.375820  1.224905
  S    12.114971  9.357931  5.126986
  S    11.843632 12.891192  5.104647
