16  
    
  C    12.709037  8.999474  3.829378
  C    12.793660 12.419275  3.777843
  C    11.479220  8.460788  3.252528
  C    11.533407 12.117169  3.063153
  N    13.717625  9.167813  2.947692
  N    13.766354 12.850400  2.965084
  N    11.532789  8.448042  1.921344
  N    11.664116 12.117133  1.748957
  N    11.164267  8.428003  5.858668
  N    10.944978 12.327609  5.554468
  S    10.277084  8.105274  4.429000
  S    10.158668 11.839132  4.108688
  S    13.042307  8.975559  1.394855
  S    13.274496 12.555162  1.457566
  S    12.664873  9.244787  5.539758
  S    12.565766 12.698487  5.471234
