16  
    
  C    11.329634  8.125964  3.274090
  C    11.397161 11.738612  3.311301
  C    10.036778  7.797991  2.666915
  C    10.109485 11.480773  2.771229
  N    12.381625  8.070845  2.467462
  N    12.366813 11.776110  2.420159
  N    10.146436  7.614193  1.379728
  N    10.042330 11.333947  1.447196
  N     9.475702  8.332704  5.091203
  N     9.720878 12.133852  5.281390
  S     8.690226  7.653595  3.765018
  S     8.847161 11.720447  3.896228
  S    11.773199  7.761982  0.946658
  S    11.600030 11.456463  0.912035
  S    11.111299  8.483516  4.974374
  S    11.418933 12.056513  4.988951
