16  
    
  C     9.263204  6.922102  2.852617
  C     9.691399 10.819469  2.658507
  C     8.050401  6.450207  2.200477
  C     8.482412 10.204551  2.017785
  N    10.279973  7.267655  2.080044
  N    10.572394 11.276548  1.789538
  N     8.169797  6.542747  0.882865
  N     8.570536 10.165100  0.683246
  N     7.552258  6.527335  4.665380
  N     8.039265 10.232821  4.515990
  S     6.824177  5.968477  3.296970
  S     7.301429  9.686125  3.095554
  S     9.770824  7.005749  0.544457
  S    10.061518 10.882079  0.295988
  S     9.161230  6.973505  4.546432
  S     9.554877 10.894900  4.378941
