16  
    
  C     6.918158  5.741515  2.078491
  C     7.249962  9.926785  2.413598
  C     5.841991  5.377430  1.191473
  C     6.043335  9.500356  1.789162
  N     8.107854  5.863477  1.485995
  N     8.254274 10.164305  1.556145
  N     6.187609  4.982725 -0.033800
  N     6.075007  9.391745  0.461148
  N     4.700375  5.930571  3.440961
  N     5.457005  9.778757  4.236039
  S     4.278769  5.241976  1.957497
  S     4.672405  9.286629  2.861810
  S     7.807614  5.250525 -0.066184
  S     7.604166  9.738713  0.026626
  S     6.303274  6.102074  3.629248
  S     7.085961 10.079991  4.164725
