16  
    
  C     7.889465  6.281649  2.137061
  C     8.075707 10.627399  2.181415
  C     6.684066  5.926081  1.501616
  C     6.975296  9.981303  1.548277
  N     8.866104  6.632295  1.288802
  N     9.099261 10.827997  1.358796
  N     6.769082  5.732258  0.176823
  N     7.128487  9.579060  0.311408
  N     6.198984  5.710191  4.062644
  N     6.314701 10.120650  4.070310
  S     5.399169  5.550489  2.597798
  S     5.627096  9.698523  2.609641
  S     8.221112  6.281222 -0.240250
  S     8.590884 10.196044 -0.136615
  S     7.697887  6.338107  3.913996
  S     7.861697 10.789269  3.927781
