16  
    
  C    10.943698  7.925994  3.112972
  C    11.542127 11.800112  3.126179
  C     9.720690  7.504711  2.425955
  C    10.438630 11.217656  2.422321
  N    11.990287  8.012124  2.307778
  N    12.587825 12.031162  2.363674
  N     9.880049  7.314444  1.102438
  N    10.649268 10.902578  1.142993
  N     9.127007  7.962001  4.911393
  N     9.755995 11.571427  4.826911
  S     8.441555  7.289495  3.547894
  S     9.096591 10.958554  3.481186
  S    11.491091  7.589651  0.820279
  S    12.143956 11.491526  0.805604
  S    10.766507  8.228628  4.804703
  S    11.271799 12.154328  4.788799
