16  
    
  C     4.726090  5.006915  1.999574
  C     4.730799  8.859889  1.667124
  C     3.541929  4.642134  1.271059
  C     3.471252  8.508934  1.049512
  N     5.865910  4.984909  1.306652
  N     5.665617  9.198358  0.779119
  N     3.738206  4.513100 -0.029196
  N     3.538245  8.522604 -0.280875
  N     2.870959  4.816163  3.789835
  N     3.089061  8.165852  3.600349
  S     2.143388  4.480757  2.350847
  S     2.258887  7.952305  2.162431
  S     5.390311  4.827065 -0.282608
  S     5.022316  8.999599 -0.717497
  S     4.531756  5.036161  3.695300
  S     4.642074  8.873241  3.421474
