16  
    
  C     8.227438  6.706706  2.495551
  C     8.537926 10.087383  2.332814
  C     7.057908  6.194903  1.834558
  C     7.249674  9.662283  1.865547
  N     9.247715  6.775698  1.619443
  N     9.426295 10.262846  1.382466
  N     7.112815  6.136059  0.504950
  N     7.192228  9.565119  0.520697
  N     6.399949  6.304482  4.306504
  N     6.884264 10.257390  4.330215
  S     5.687737  5.932649  2.847072
  S     5.978641  9.787731  3.022648
  S     8.698796  6.415457  0.127640
  S     8.702762  9.913380 -0.070932
  S     7.988861  6.731819  4.263335
  S     8.496603 10.517147  4.048945
