16  
    
  C     9.596886  7.328604  2.977624
  C     9.610332 10.887181  2.742490
  C     8.527590  6.765714  2.211065
  C     8.436179 10.476552  2.126152
  N    10.669918  7.674043  2.243045
  N    10.619312 11.166998  1.929412
  N     8.708966  6.783234  0.894559
  N     8.492940 10.385522  0.801868
  N     7.752876  6.635750  4.588092
  N     7.911104 10.663127  4.612775
  S     7.151794  6.213779  3.138665
  S     7.104545 10.237649  3.222528
  S    10.230777  7.338965  0.671407
  S     9.994515 10.850582  0.386618
  S     9.240884  7.352016  4.663291
  S     9.531901 11.025600  4.473845
