16  
    
  C     4.529435  5.193487  1.633913
  C     4.439222  8.491667  1.476238
  C     3.251345  4.843020  1.034160
  C     3.286143  7.903316  0.901440
  N     5.525911  5.290406  0.728016
  N     5.497810  8.483504  0.647723
  N     3.349560  4.476617 -0.245735
  N     3.383211  7.695538 -0.424593
  N     2.771884  4.883168  3.594262
  N     2.618845  8.745312  3.242033
  S     2.021615  4.452262  2.153343
  S     1.896895  7.865313  2.016727
  S     4.900155  4.896649 -0.775590
  S     4.957207  8.038811 -0.820377
  S     4.341299  5.407108  3.418610
  S     4.231794  8.890551  3.205804
