16  
    
  C     3.485922  4.466169  1.476975
  C     3.572289  8.428669  1.207718
  C     2.298256  4.018018  0.792085
  C     2.260986  7.984032  0.683896
  N     4.510900  4.811080  0.689364
  N     4.563265  8.481427  0.298846
  N     2.525500  3.835775 -0.509698
  N     2.231931  8.047139 -0.638331
  N     1.703358  4.305083  3.338558
  N     1.920272  8.136852  3.172880
  S     1.069114  3.537100  2.014480
  S     0.999418  7.807944  1.862319
  S     4.139266  4.281859 -0.782019
  S     3.779015  8.313812 -1.160926
  S     3.335426  4.786321  3.174857
  S     3.520530  8.553638  2.943244
