16  
    
  C     6.291397  5.711738  2.017198
  C     6.026651  9.142228  1.657217
  C     5.030367  5.509356  1.414488
  C     4.822052  8.689918  1.064392
  N     7.307229  5.763196  1.154200
  N     7.039602  9.271416  0.791111
  N     5.091443  5.152483  0.129817
  N     4.889909  8.626479 -0.262673
  N     4.583631  5.677047  3.994698
  N     4.317824  9.002556  3.664026
  S     3.795707  5.418647  2.585782
  S     3.520090  8.562533  2.217266
  S     6.661188  5.344542 -0.300982
  S     6.512359  8.926619 -0.688221
  S     6.181362  6.086556  3.706552
  S     5.935228  9.418279  3.353745
