16  
    
  C    12.518016  9.023996  3.396293
  C    12.264653 12.817630  3.579541
  C    11.317791  8.556885  2.742406
  C    11.109780 12.090230  3.047339
  N    13.554809  9.347163  2.621500
  N    13.189797 13.164016  2.707173
  N    11.600029  8.324210  1.441584
  N    11.194215 11.900459  1.738785
  N    10.782878  8.583063  5.215566
  N    10.700012 12.295646  5.520350
  S     9.999493  8.260669  3.856631
  S     9.868763 11.880956  4.152123
  S    13.083199  8.876511  1.083748
  S    12.636451 12.629960  1.235246
  S    12.325245  9.025491  5.108943
  S    12.117259 13.150955  5.274554
