16  
    
  C     6.562131  5.873137  1.905048
  C     6.608922  9.613593  1.886046
  C     5.284862  5.439011  1.378302
  C     5.329055  9.193678  1.291015
  N     7.549447  5.820878  1.027939
  N     7.580673  9.681497  0.995904
  N     5.299455  5.295150  0.058420
  N     5.425691  8.869094  0.005835
  N     4.960738  5.772829  3.912816
  N     5.020337  9.193208  3.882790
  S     4.115973  5.452366  2.593892
  S     4.106053  8.920664  2.484456
  S     6.873881  5.480437 -0.432541
  S     6.997304  9.252849 -0.505573
  S     6.579968  5.991890  3.611479
  S     6.549079  9.705099  3.648627
