16  
    
  C     4.794384  4.918637  2.135074
  C     4.740125  8.783707  1.612037
  C     3.624989  4.663167  1.340387
  C     3.527722  8.316483  0.953011
  N     5.837624  5.114796  1.325281
  N     5.712024  9.148852  0.794462
  N     3.742060  4.582577  0.030759
  N     3.553449  8.403653 -0.372871
  N     2.762579  4.765929  3.699965
  N     3.088130  8.236442  3.447953
  S     2.134788  4.565468  2.200012
  S     2.279373  7.874865  2.042862
  S     5.331137  4.824890 -0.222835
  S     5.121246  8.943134 -0.731910
  S     4.390159  5.139563  3.849151
  S     4.608797  8.851393  3.337117
