16  
    
  C     7.502165  6.137798  2.154866
  C     7.875963  9.869349  2.275962
  C     6.352625  5.523700  1.566936
  C     6.675027  9.318158  1.744457
  N     8.490692  6.440861  1.306831
  N     8.826975 10.198327  1.389391
  N     6.470026  5.444594  0.246625
  N     6.695032  9.302787  0.412107
  N     5.867840  5.723704  4.146938
  N     6.253135  9.689592  4.274720
  S     5.107178  5.287918  2.751405
  S     5.461561  9.049374  2.984146
  S     7.969638  6.040692 -0.178073
  S     8.277804  9.851524 -0.081695
  S     7.454272  6.231863  3.869393
  S     7.843808 10.157199  3.997902
