16  
    
  C     8.901376  6.976878  2.238777
  C     9.000719 10.549461  2.449069
  C     7.687090  6.492535  1.571970
  C     7.768444 10.061939  1.818631
  N     9.914837  7.193181  1.431309
  N     9.997843 10.691201  1.594105
  N     7.894587  6.357570  0.264997
  N     7.882713  9.827755  0.511365
  N     7.172025  6.713675  4.104618
  N     7.309293 10.352037  4.297284
  S     6.372893  6.288597  2.740153
  S     6.426011 10.092231  2.894208
  S     9.459656  6.772079 -0.076070
  S     9.476378 10.211171  0.088592
  S     8.779244  7.229791  3.901332
  S     8.907389 10.757369  4.119758
