16  
    
  C     4.265159  5.068937  1.105023
  C     4.458129  8.266504  1.396067
  C     3.010397  4.732239  0.520861
  C     3.251499  7.888102  0.689348
  N     5.348808  5.028601  0.371497
  N     5.445653  8.663857  0.590275
  N     3.109241  4.644493 -0.799998
  N     3.425762  7.705412 -0.608186
  N     2.714294  4.674015  3.055707
  N     2.557325  8.248131  3.121542
  S     1.760998  4.689006  1.735940
  S     1.856965  7.705333  1.721021
  S     4.791969  4.778255 -1.175505
  S     4.936294  8.267794 -0.968307
  S     4.236342  5.225072  2.797697
  S     4.168177  8.409101  3.128349
