16  
    
  C    12.713393  8.958982  3.883944
  C    12.624252 12.769821  3.934637
  C    11.578935  8.331242  3.230922
  C    11.458298 12.286459  3.205208
  N    13.662661  9.216339  2.985632
  N    13.695462 13.044157  3.186652
  N    11.627893  8.265677  1.885129
  N    11.710571 12.028670  1.944616
  N    10.942869  8.598192  5.803655
  N    10.693644 12.344271  5.674418
  S    10.294714  8.114535  4.323660
  S    10.115512 11.860722  4.160751
  S    13.073357  8.842353  1.472553
  S    13.272342 12.506968  1.638933
  S    12.619023  9.057851  5.631677
  S    12.295486 12.746386  5.661885
