16  
    
  C     4.589575  5.061605  1.983734
  C     4.675124  8.681080  1.443572
  C     3.390766  4.682817  1.261232
  C     3.533012  8.147204  0.785961
  N     5.661758  5.353244  1.251491
  N     5.743973  8.882258  0.688244
  N     3.617106  4.607097 -0.048049
  N     3.635691  7.982956 -0.519230
  N     2.636447  4.985745  3.696835
  N     2.887447  8.333148  3.272254
  S     2.000429  4.459365  2.232814
  S     2.167230  7.922551  1.798401
  S     5.197851  4.901491 -0.283626
  S     5.219633  8.422350 -0.871741
  S     4.340398  5.177052  3.715361
  S     4.486747  8.804105  3.143214
