16  
    
  C    10.973174  7.850490  3.155517
  C    11.516284 11.925194  3.002630
  C     9.803371  7.549641  2.374406
  C    10.358699 11.212548  2.481084
  N    12.103372  7.866401  2.415948
  N    12.508937 12.192512  2.145552
  N    10.055713  7.315151  1.064053
  N    10.527364 10.922525  1.200658
  N     8.975912  7.754627  4.780891
  N     9.869876 11.480819  4.912652
  S     8.330047  7.416534  3.321297
  S     9.076828 10.875322  3.630837
  S    11.669328  7.622919  0.857305
  S    12.018800 11.334821  0.713002
  S    10.622063  7.971358  4.838681
  S    11.282053 12.278170  4.692540
