16  
    
  C     8.739184  7.349198  2.642328
  C     9.026609 11.090881  2.205933
  C     7.581781  6.590654  2.123509
  C     7.830173 10.625203  1.477427
  N     9.678259  7.629788  1.719746
  N    10.045744 11.389469  1.366983
  N     7.537791  6.482351  0.801297
  N     7.962161 10.557317  0.157872
  N     6.995375  6.747295  4.627752
  N     7.229373 10.383256  4.000546
  S     6.273515  6.254696  3.221296
  S     6.467550 10.254197  2.521165
  S     8.957412  7.111311  0.220026
  S     9.470591 10.972507 -0.210302
  S     8.562336  7.379978  4.428626
  S     8.822077 10.913490  3.939784
