16  
    
  C     6.859745  5.985138  1.597713
  C     7.260427  9.931849  2.467490
  C     5.799696  5.130977  1.123379
  C     6.023095  9.518973  1.906068
  N     7.824785  6.127585  0.720563
  N     8.283998  9.898408  1.632798
  N     5.935451  4.679276 -0.131651
  N     6.071751  9.199741  0.626816
  N     5.184879  5.840518  3.545645
  N     5.591492  9.851756  4.485596
  S     4.478491  4.905366  2.238845
  S     4.703788  9.531048  3.047253
  S     7.392744  5.303194 -0.672490
  S     7.588656  9.399979  0.124466
  S     6.736477  6.422021  3.308392
  S     7.184971 10.298091  4.209846
