16  
    
  C     7.984087  6.668241  2.668971
  C     8.683202 10.280445  2.749817
  C     6.870672  6.116618  1.912484
  C     7.451383  9.836964  2.106412
  N     9.100112  6.834692  1.967936
  N     9.707124 10.513999  1.945293
  N     7.188168  5.993053  0.613076
  N     7.575002  9.715200  0.805106
  N     6.153647  6.321600  4.392910
  N     6.894135 10.198196  4.594247
  S     5.445554  5.804328  2.949345
  S     6.099396  9.929409  3.175842
  S     8.775101  6.351152  0.429333
  S     9.151718 10.075483  0.397265
  S     7.740178  6.773736  4.376505
  S     8.476983 10.739027  4.396911
