16  
    
  C     9.452331  7.057746  2.984737
  C     9.598967 10.830922  2.633003
  C     8.326335  6.534231  2.250371
  C     8.320678 10.442064  2.008121
  N    10.436499  7.554765  2.258774
  N    10.565591 11.123188  1.742428
  N     8.544885  6.492580  0.936056
  N     8.382077 10.316438  0.691172
  N     7.715778  6.432772  4.794354
  N     7.937579 10.392171  4.566448
  S     7.022628  6.016907  3.309946
  S     7.083703 10.081973  3.126280
  S    10.041750  7.254932  0.691171
  S     9.953109 10.806754  0.273024
  S     9.286038  7.011992  4.664836
  S     9.514809 10.910027  4.340780
