16  
    
  C     6.659747  6.050954  2.390257
  C     7.033046  9.841994  2.252540
  C     5.504422  5.421923  1.832557
  C     5.811757  9.494182  1.575006
  N     7.502114  6.542137  1.489618
  N     8.089813  9.872733  1.481817
  N     5.600537  5.219530  0.511627
  N     5.920447  9.293852  0.273386
  N     5.339802  5.336098  4.450610
  N     5.427870  9.394370  4.143719
  S     4.576758  4.710835  3.052993
  S     4.518301  9.414642  2.764201
  S     6.951406  6.063980  0.023596
  S     7.539370  9.579475 -0.084686
  S     6.707768  6.179308  4.101732
  S     6.993137  9.835729  3.954583
