16  
    
  C     4.409838  4.887496  1.454245
  C     4.171254  8.687618  1.684257
  C     3.136085  4.730803  0.821725
  C     3.080224  8.180646  0.820109
  N     5.426691  5.165614  0.629010
  N     5.297763  8.962381  1.016202
  N     3.232614  4.642617 -0.520968
  N     3.316229  8.329878 -0.474402
  N     2.747262  5.102183  3.422057
  N     2.294241  7.786833  3.211297
  S     1.858561  4.577864  2.127852
  S     1.615529  7.758476  1.628232
  S     4.824134  4.831463 -0.875628
  S     4.887300  8.831948 -0.636524
  S     4.405834  5.140802  3.134873
  S     3.777593  8.517845  3.379944
