16  
    
  C    12.084803  8.525104  3.326626
  C    11.911296 12.205947  3.193991
  C    10.756362  8.280003  2.722049
  C    10.603998 11.930543  2.674683
  N    13.030568  8.722049  2.435498
  N    12.901867 12.115694  2.287362
  N    10.708432  8.375166  1.397757
  N    10.589317 11.813384  1.338584
  N    10.287023  8.415491  5.232543
  N    10.320685 12.018678  5.247569
  S     9.444097  8.227352  3.866515
  S     9.427561 11.681374  3.823792
  S    12.287851  8.584829  0.898909
  S    12.123218 12.019223  0.815178
  S    11.941360  8.710437  5.046505
  S    11.910090 12.261427  4.929779
