16  
    
  C     9.530260  7.649433  2.641326
  C    10.136807 11.258318  2.603834
  C     8.486108  6.878052  2.107628
  C     8.912274 10.924235  2.004915
  N    10.546725  7.825032  1.800412
  N    11.150537 11.374007  1.729431
  N     8.690973  6.442677  0.867745
  N     8.904476 10.749298  0.667571
  N     7.852470  7.319811  4.579457
  N     8.482616 11.000192  4.547683
  S     7.135743  6.584133  3.232812
  S     7.602489 10.726259  3.165647
  S    10.178267  7.003611  0.434438
  S    10.474516 11.051118  0.260761
  S     9.338880  7.975526  4.296935
  S    10.058449 11.608421  4.306937
