16  
    
  C    12.334890  9.265983  3.507506
  C    12.481815 12.713096  3.473750
  C    11.269177  8.621620  2.784970
  C    11.233463 12.127470  2.990416
  N    13.342251  9.654864  2.727342
  N    13.401702 12.888787  2.528226
  N    11.524553  8.514542  1.499894
  N    11.140141 12.071470  1.667644
  N    10.572376  8.354098  5.299609
  N    10.864834 12.514776  5.496361
  S    10.007859  7.949038  3.706347
  S    10.009187 12.117870  4.166645
  S    12.900536  9.208521  1.156940
  S    12.672726 12.472222  1.097610
  S    12.014292  9.187470  5.208579
  S    12.423160 13.085263  5.185689
