16  
    
  C     6.864051  5.992426  1.595048
  C     7.261820  9.927604  2.463556
  C     5.806379  5.123928  1.129611
  C     6.022669  9.522579  1.905241
  N     7.836764  6.131430  0.723878
  N     8.292614  9.894333  1.633112
  N     5.936930  4.679531 -0.127546
  N     6.077290  9.197143  0.630434
  N     5.185200  5.839866  3.550474
  N     5.587867  9.854949  4.486734
  S     4.481253  4.908307  2.241972
  S     4.700612  9.531117  3.043142
  S     7.391118  5.309281 -0.671471
  S     7.586526  9.399446  0.123124
  S     6.735926  6.422092  3.314648
  S     7.184327 10.297112  4.212906
