16  
    
  C     6.684251  5.819699  2.142497
  C     6.720127  9.798838  2.263386
  C     5.393716  5.579227  1.570852
  C     5.474347  9.309480  1.717658
  N     7.654028  5.914111  1.254657
  N     7.673352  9.858827  1.322500
  N     5.418372  5.365434  0.281906
  N     5.446446  9.044953  0.423642
  N     5.078986  5.562847  4.126423
  N     5.114282  9.283625  4.298684
  S     4.249640  5.283970  2.733175
  S     4.253303  9.115404  2.881230
  S     6.973057  5.643631 -0.222536
  S     6.969898  9.442975 -0.147475
  S     6.655367  5.973836  3.867859
  S     6.723946  9.867460  4.007222
