16  
    
  C     5.355851  5.599427  1.683342
  C     5.262720  8.939410  1.765399
  C     4.197608  5.113498  0.924485
  C     4.070214  8.676638  1.028185
  N     6.462523  5.732344  0.926120
  N     6.353627  9.207176  1.031311
  N     4.441911  5.133534 -0.412144
  N     4.273254  8.509399 -0.287972
  N     3.505822  5.225368  3.475971
  N     3.310438  8.733358  3.472060
  S     2.743922  5.075935  1.931102
  S     2.738960  8.200086  2.032551
  S     6.066846  5.374029 -0.613879
  S     5.840980  8.864463 -0.522384
  S     5.117580  5.712730  3.395778
  S     4.972892  8.882327  3.491371
