16  
    
  C    12.780040  9.384793  3.447544
  C    12.732556 12.791118  3.661515
  C    11.668452  8.757729  2.793607
  C    11.547904 12.344522  3.030864
  N    13.871401  9.411309  2.678734
  N    13.739018 13.033958  2.837779
  N    11.809549  8.482962  1.491589
  N    11.649183 12.122226  1.722584
  N    11.003238  9.184874  5.238318
  N    10.986133 12.686874  5.550807
  S    10.305901  8.574211  3.857724
  S    10.239761 12.373554  4.129305
  S    13.365069  8.950959  1.218751
  S    13.188210 12.568355  1.292410
  S    12.584574  9.655679  5.127391
  S    12.555268 13.177463  5.269985
