16  
    
  C    10.533911  7.242564  2.756600
  C    10.290618 11.107114  2.708902
  C     9.238069  7.336480  2.142687
  C     9.058058 10.893895  2.066444
  N    11.540365  7.127223  1.908899
  N    11.296299 11.221906  1.859141
  N     9.216299  7.239542  0.825509
  N     9.123321 10.674952  0.757962
  N     8.787672  7.381416  4.733018
  N     8.568804 11.091742  4.646221
  S     7.942007  7.710286  3.334265
  S     7.705426 10.856934  3.214051
  S    10.800791  7.225169  0.396441
  S    10.710263 10.897683  0.364851
  S    10.452303  7.348545  4.482884
  S    10.161511 11.445599  4.400049
