16  
    
  C    11.874944  8.680455  3.533918
  C    11.589183 12.310822  3.269840
  C    10.595849  8.353266  2.924096
  C    10.464248 11.764080  2.577690
  N    12.864165  8.824508  2.674387
  N    12.695687 12.426868  2.523747
  N    10.675717  8.217764  1.612470
  N    10.671717 11.452783  1.299030
  N    10.032959  8.547487  5.361038
  N     9.558124 11.871178  5.009279
  S     9.249958  8.270479  3.919931
  S     8.990134 11.444635  3.444187
  S    12.254670  8.428637  1.179544
  S    12.266594 11.895192  0.991914
  S    11.630758  9.010812  5.206659
  S    11.196496 12.324983  4.995560
