16  
    
  C     9.204464  6.869874  2.350199
  C     9.027443 11.125641  2.887635
  C     7.926692  6.510094  1.741996
  C     7.849291 10.564085  2.275195
  N    10.269381  6.861713  1.572448
  N    10.089769 11.213105  2.093422
  N     8.048160  6.191136  0.470440
  N     7.994242 10.281001  1.008842
  N     7.430636  6.811539  4.196152
  N     7.341590 10.809549  4.793281
  S     6.595556  6.359020  2.812146
  S     6.566066 10.307363  3.404607
  S     9.638142  6.427725  0.056562
  S     9.498577 10.681838  0.589368
  S     9.022985  7.292775  4.033891
  S     8.927904 11.383086  4.599216
