16  
    
  C    11.049266  8.368399  2.919464
  C    10.818616 11.921862  3.007523
  C     9.873275  7.650995  2.392516
  C     9.622861 11.337700  2.424418
  N    12.017330  8.615324  2.066670
  N    11.845961 12.115276  2.199927
  N     9.992898  7.302393  1.120921
  N     9.714057 11.198017  1.122522
  N     9.480611  7.935564  4.889037
  N     9.094639 11.434736  4.941301
  S     8.705085  7.311622  3.605533
  S     8.342100 10.916351  3.481799
  S    11.454729  7.905554  0.590428
  S    11.314363 11.594565  0.701313
  S    10.992145  8.564908  4.628486
  S    10.671733 11.935765  4.715530
