16  
    
  C     9.577112  7.349077  2.914089
  C     9.658521 10.946281  2.779229
  C     8.462488  6.782354  2.141325
  C     8.407910 10.437787  2.155945
  N    10.701823  7.645568  2.259528
  N    10.676696 11.165668  1.938345
  N     8.739174  6.791050  0.837804
  N     8.513111 10.402098  0.838747
  N     7.774706  6.681144  4.617424
  N     7.919215 10.702950  4.618215
  S     7.151319  6.271526  3.146475
  S     7.118152 10.240782  3.235892
  S    10.287050  7.380340  0.655574
  S    10.033986 10.882626  0.413960
  S     9.269561  7.415795  4.644454
  S     9.528725 11.054194  4.497274
