16  
    
  C    11.371789  8.512526  3.383740
  C    11.470545 12.417304  3.312066
  C    10.219553  7.867484  2.791001
  C    10.309620 11.820375  2.683659
  N    12.391677  8.664827  2.527348
  N    12.473708 12.564355  2.465544
  N    10.392407  7.640800  1.466307
  N    10.526619 11.299121  1.465767
  N     9.484784  8.567541  5.209322
  N     9.574410 12.376885  5.133656
  S     8.927937  7.723932  3.854800
  S     8.922296 11.586095  3.753739
  S    11.904621  8.082018  1.066291
  S    11.999903 11.914291  1.036067
  S    11.049097  9.133718  4.993840
  S    11.234602 12.727794  5.045025
