16  
    
  C     9.202620  6.846935  2.365753
  C     9.116600 10.909831  3.000945
  C     8.026197  6.271238  1.797837
  C     7.946246 10.322837  2.433103
  N    10.261630  6.819368  1.546118
  N    10.110385 11.073846  2.136265
  N     8.090534  5.930162  0.507272
  N     8.010947 10.124460  1.091267
  N     7.382489  7.045701  4.192376
  N     7.347013 10.878309  4.898859
  S     6.691068  6.307237  2.892041
  S     6.566050 10.484537  3.498594
  S     9.699674  6.158876  0.077875
  S     9.534878 10.537984  0.617533
  S     9.006612  7.265627  4.082496
  S     8.970536 11.308161  4.700184
