16  
    
  C     4.200518  4.860841  1.424408
  C     4.274645  8.342560  1.349031
  C     2.972696  4.465500  0.763067
  C     2.998873  8.047071  0.687577
  N     5.265180  5.011460  0.625330
  N     5.329039  8.439675  0.529364
  N     3.133395  4.451746 -0.559536
  N     3.133513  7.727782 -0.603798
  N     2.489018  4.807486  3.291735
  N     2.490916  8.272849  3.210959
  S     1.608572  4.537170  1.942391
  S     1.729505  7.852771  1.847204
  S     4.756023  4.689913 -0.942598
  S     4.733744  8.027388 -1.028903
  S     4.130952  4.990608  3.153908
  S     4.098999  8.651654  3.066684
