16  
    
  C     5.519854  5.278194  1.801301
  C     5.175357  8.972709  1.676523
  C     4.162967  5.220049  1.288093
  C     4.003578  8.463156  0.995631
  N     6.468102  5.355555  0.891149
  N     6.251352  9.040192  0.900590
  N     4.152051  5.016360 -0.031235
  N     4.123034  8.374848 -0.330966
  N     3.991910  5.149660  3.865146
  N     3.392865  8.631789  3.492369
  S     2.996294  5.114745  2.566595
  S     2.642100  8.215939  2.093896
  S     5.705959  5.251746 -0.568561
  S     5.761589  8.686631 -0.656859
  S     5.577250  5.408281  3.516056
  S     4.927338  9.254838  3.440471
