16  
    
  C     5.580848  5.404934  1.932388
  C     5.523382  9.009991  1.804797
  C     4.339766  4.830176  1.414246
  C     4.408899  8.388804  1.154405
  N     6.452771  5.828782  1.026365
  N     6.574256  9.262223  1.014745
  N     4.363092  4.631819  0.104139
  N     4.580707  8.221568 -0.132626
  N     4.134724  4.975980  3.953304
  N     3.639908  8.630152  3.548173
  S     3.147936  4.621571  2.682492
  S     2.981595  8.148624  2.130702
  S     5.867299  5.202033 -0.408895
  S     6.093234  8.748950 -0.511163
  S     5.613507  5.571205  3.639057
  S     5.258138  9.098712  3.528886
