16  
    
  C     5.994279  5.077451  1.608024
  C     5.979741  9.158247  1.950069
  C     4.758507  4.757822  0.988657
  C     4.747843  8.736458  1.366428
  N     7.020389  5.227438  0.769204
  N     7.014170  9.208634  1.120141
  N     4.909615  4.464648 -0.302615
  N     4.864972  8.445167  0.073979
  N     4.188392  4.722170  3.555127
  N     4.203036  8.831080  3.873362
  S     3.437452  4.489661  2.051925
  S     3.383119  8.598104  2.430793
  S     6.442472  4.831722 -0.755991
  S     6.480648  8.751405 -0.353388
  S     5.806465  5.040893  3.373791
  S     5.856339  9.239174  3.665105
