16  
    
  C     8.270156  6.587357  2.426748
  C     8.436172 10.141785  2.296506
  C     7.046405  6.313188  1.751118
  C     7.134299  9.807329  1.794652
  N     9.344103  6.847406  1.682023
  N     9.474758 10.235972  1.478928
  N     7.194156  6.114527  0.442590
  N     7.163082  9.591073  0.468838
  N     6.580946  6.259383  4.337804
  N     6.856414 10.166477  4.324115
  S     5.791394  5.907604  2.899578
  S     5.915057  9.715697  3.010293
  S     8.775486  6.476178  0.110351
  S     8.737562  9.893974 -0.012521
  S     8.163391  6.750321  4.117804
  S     8.467391 10.532067  3.974053
