16  
    
  C     9.192665  6.744978  2.375098
  C     9.137073 10.826541  2.980556
  C     7.965303  6.286326  1.745494
  C     7.912308 10.372091  2.402852
  N    10.245876  6.824331  1.554017
  N    10.143501 10.971653  2.134482
  N     8.192412  5.779602  0.516648
  N     8.025366 10.021227  1.116663
  N     7.403266  7.053655  4.166793
  N     7.363309 10.956732  4.887120
  S     6.623903  6.310707  2.922340
  S     6.560896 10.540795  3.487511
  S     9.761343  6.106104  0.155756
  S     9.559641 10.444091  0.664317
  S     9.069690  7.251305  4.038409
  S     9.007033 11.231984  4.724797
