16  
    
  C    11.783264  8.537829  3.410923
  C    11.612682 12.042136  3.403376
  C    10.581776  8.321053  2.680336
  C    10.384082 11.669360  2.748734
  N    12.891599  8.663760  2.662080
  N    12.697243 12.129364  2.636572
  N    10.770327  8.210263  1.344963
  N    10.567066 11.459570  1.464856
  N    10.007289  8.380292  5.216690
  N     9.806579 11.559569  5.332992
  S     9.182595  8.226861  3.720636
  S     9.014763 11.327709  3.864319
  S    12.389991  8.337929  1.120851
  S    12.174686 11.857502  1.113383
  S    11.635870  8.704116  5.108804
  S    11.447504 11.946694  5.081079
