16  
    
  C    11.367985  8.509524  3.369733
  C    11.386927 12.414200  3.314980
  C    10.251268  7.863150  2.743202
  C    10.252659 11.783089  2.696980
  N    12.416672  8.652692  2.566856
  N    12.415201 12.531085  2.458881
  N    10.383989  7.595892  1.450649
  N    10.491437 11.285296  1.478730
  N     9.513201  8.553935  5.178663
  N     9.587391 12.465322  5.166347
  S     8.876693  7.739674  3.854364
  S     8.939608 11.619703  3.794832
  S    11.910892  8.056056  1.094610
  S    11.986022 11.854017  1.059386
  S    11.046298  9.083742  4.998285
  S    11.291246 12.741756  5.029736
