16  
    
  C    12.377317  9.112949  3.344932
  C    12.280826 12.806165  3.404890
  C    11.162128  8.649454  2.802455
  C    11.183991 12.123894  2.813470
  N    13.324828  9.212433  2.428989
  N    13.338390 12.962806  2.627177
  N    11.251719  8.292882  1.492495
  N    11.346833 11.784801  1.541433
  N    10.785431  8.967986  5.389752
  N    10.341142 12.663921  5.189331
  S     9.888152  8.579772  4.028190
  S     9.681894 12.102069  3.729943
  S    12.733164  8.779210  0.958634
  S    12.920482 12.224082  1.187496
  S    12.402431  9.577564  5.004257
  S    11.925523 13.046570  5.138166
