16  
    
  C    12.342837  9.120773  3.668873
  C    12.548903 12.823234  3.503906
  C    11.224469  8.464995  2.992378
  C    11.268108 12.431116  2.935151
  N    13.326314  9.589756  2.886863
  N    13.507646 13.081044  2.614840
  N    11.406931  8.262484  1.679466
  N    11.329414 12.302621  1.611238
  N    10.637527  8.411334  5.430185
  N    10.855245 12.730555  5.468811
  S     9.950902  7.947716  4.049235
  S    10.040796 12.227301  4.113394
  S    12.849638  9.132212  1.360234
  S    12.875017 12.564885  1.148630
  S    12.061793  9.216767  5.364966
  S    12.460778 12.864949  5.288123
