16  
    
  C     7.710739  6.546184  2.443197
  C     7.813612 10.050401  2.081913
  C     6.510236  6.119443  1.835377
  C     6.552677  9.895811  1.454796
  N     8.750211  6.653086  1.650160
  N     8.851751 10.027266  1.276992
  N     6.594964  5.837618  0.571155
  N     6.640528  9.773354  0.143280
  N     5.899973  6.872017  4.237962
  N     6.004429 10.082857  3.974783
  S     5.159077  6.157888  2.876649
  S     5.193082  9.956392  2.511255
  S     8.220256  6.158343  0.167479
  S     8.303228  9.771380 -0.211655
  S     7.487335  7.077543  4.066680
  S     7.626799 10.400619  3.796700
