16  
    
  C     6.594661  5.807213  2.130141
  C     6.231776  9.208078  1.900102
  C     5.480780  5.277765  1.418606
  C     5.076527  8.714636  1.182714
  N     7.607498  6.128648  1.350187
  N     7.345610  9.430964  1.214734
  N     5.633188  5.076077  0.113512
  N     5.299783  8.597396 -0.131150
  N     4.716477  5.519741  3.919783
  N     4.452697  8.985632  3.691470
  S     4.071539  5.102348  2.438399
  S     3.679230  8.561575  2.205102
  S     7.186595  5.653823 -0.190369
  S     6.830521  9.139019 -0.382507
  S     6.349316  6.054564  3.825852
  S     6.045934  9.381441  3.641959
