16  
    
  C     9.689661  7.537202  2.801906
  C     9.966243 11.117103  2.674280
  C     8.581226  6.942108  2.165551
  C     8.726565 10.861031  2.084444
  N    10.748958  7.799844  2.024046
  N    10.982139 11.331003  1.807494
  N     8.758641  6.780618  0.862134
  N     8.763285 10.675338  0.733611
  N     7.807187  7.322313  4.623955
  N     8.237690 11.178951  4.645505
  S     7.181988  6.698011  3.205858
  S     7.402588 10.822548  3.226757
  S    10.308597  7.248009  0.511054
  S    10.348629 11.040659  0.356218
  S     9.332143  8.016405  4.438949
  S     9.909979 11.302857  4.449356
