16  
    
  C    12.419418  9.019478  3.540481
  C    12.502525 12.666439  3.410484
  C    11.133974  8.669317  2.971728
  C    11.263774 12.070206  2.862961
  N    13.383461  9.020841  2.640250
  N    13.477853 12.815427  2.509505
  N    11.192363  8.287673  1.697059
  N    11.292278 11.918953  1.539453
  N    10.666593  9.209333  5.536504
  N    10.706299 12.542591  5.275829
  S     9.846109  8.658797  4.158836
  S     9.949207 12.013994  3.915653
  S    12.773451  8.470508  1.230632
  S    12.819308 12.401077  1.066992
  S    12.286038  9.471213  5.162421
  S    12.271679 13.117393  5.117112
