16  
    
  C    11.914736  8.385436  3.298105
  C    11.539955 12.029638  3.496475
  C    10.654117  8.116768  2.612030
  C    10.353789 11.483496  2.865982
  N    12.904762  8.656896  2.455363
  N    12.573231 12.349023  2.720832
  N    10.723081  8.202352  1.274897
  N    10.501588 11.300694  1.580945
  N    10.168623  8.166771  5.110863
  N     9.704895 11.715518  5.323379
  S     9.312137  8.186162  3.690232
  S     8.993670 11.138826  3.958251
  S    12.338945  8.544817  0.890820
  S    11.974335 12.038348  1.161148
  S    11.783067  8.461779  5.026041
  S    11.313750 12.126453  5.213139
