16  
    
  C     4.584368  5.187220  1.759590
  C     4.222721  8.613565  1.547674
  C     3.387363  4.736798  1.104307
  C     3.028009  8.210149  0.878420
  N     5.586459  5.271727  0.890014
  N     5.259937  8.912987  0.790648
  N     3.423998  4.484260 -0.192734
  N     3.170546  8.041264 -0.416577
  N     2.654496  5.116074  3.499178
  N     2.472341  8.323521  3.306022
  S     1.943421  4.697938  2.064838
  S     1.710462  7.773030  1.932619
  S     4.949018  4.711687 -0.574263
  S     4.735429  8.548240 -0.763724
  S     4.301936  5.306645  3.462037
  S     4.056506  8.797740  3.268266
