16  
    
  C    12.740392  9.030589  3.467557
  C    12.753622 12.750753  3.412176
  C    11.546830  8.415963  3.027292
  C    11.533905 12.371284  2.746254
  N    13.635062  9.386420  2.530432
  N    13.792801 12.952070  2.624374
  N    11.482077  8.317955  1.695505
  N    11.743325 12.030016  1.476559
  N    11.112713  9.093108  5.572048
  N    11.040588 12.342491  5.311399
  S    10.314106  8.366637  4.227947
  S    10.292048 11.935142  3.907438
  S    12.995428  8.884490  1.095144
  S    13.280009 12.516150  1.084366
  S    12.739887  9.262605  5.213286
  S    12.605701 12.841402  5.141033
