16  
    
  C     5.712024  5.188984  1.881944
  C     5.667369  9.188225  2.006387
  C     4.640502  4.486933  1.273546
  C     4.521695  8.533877  1.425677
  N     6.794656  5.344169  1.089000
  N     6.554410  9.615968  1.124127
  N     4.814988  4.283656 -0.033105
  N     4.646167  8.271372  0.116649
  N     3.987628  4.690187  3.705056
  N     4.130523  8.711659  3.985051
  S     3.238447  4.324445  2.298137
  S     3.301501  8.227444  2.624888
  S     6.346315  4.762356 -0.373629
  S     6.072823  9.005733 -0.316131
  S     5.460622  5.394344  3.628493
  S     5.637965  9.450245  3.742481
