16  
    
  C     7.698434  6.585355  2.452331
  C     7.821425 10.076482  2.126481
  C     6.511830  6.077449  1.864722
  C     6.540971  9.907307  1.468084
  N     8.739694  6.626261  1.629989
  N     8.866226 10.028180  1.277658
  N     6.587295  5.841207  0.557036
  N     6.628392  9.744936  0.159279
  N     5.878938  6.885667  4.234153
  N     5.988113 10.050297  3.966638
  S     5.167832  6.163087  2.880512
  S     5.193230  9.957267  2.480209
  S     8.166257  6.154223  0.161843
  S     8.294205  9.764105 -0.205444
  S     7.506352  7.082564  4.076680
  S     7.609336 10.375587  3.834452
