16  
    
  C     3.643089  4.922070  1.559155
  C     3.924526  8.243838  1.693895
  C     2.419585  4.377443  0.982204
  C     2.619911  7.957005  1.091718
  N     4.633634  5.038345  0.680373
  N     4.920995  8.396537  0.817298
  N     2.549616  4.148390 -0.312638
  N     2.654034  7.832289 -0.218269
  N     1.902192  4.325080  3.473245
  N     2.165207  8.166358  3.644998
  S     1.146449  3.901380  2.019393
  S     1.292695  7.863318  2.258519
  S     4.021700  4.608646 -0.857251
  S     4.211094  8.108945 -0.717904
  S     3.480673  4.755036  3.366686
  S     3.741509  8.530755  3.428874
