16  
    
  C     8.687486  7.280524  2.694644
  C     8.952981 11.096983  2.251410
  C     7.451661  6.721164  2.132411
  C     7.759073 10.653667  1.526766
  N     9.563905  7.550055  1.727961
  N     9.950468 11.386528  1.407386
  N     7.580527  6.394428  0.849554
  N     7.888428 10.531267  0.222476
  N     7.074140  6.940514  4.656221
  N     7.259087 10.389184  4.009252
  S     6.347248  6.183377  3.328551
  S     6.483033 10.178271  2.567109
  S     9.007049  6.962708  0.313233
  S     9.461165 11.100596 -0.122552
  S     8.613450  7.433803  4.429644
  S     8.790123 10.994289  3.949485
