16  
    
  C     5.674932  5.264586  1.887586
  C     5.346038  8.901555  1.721695
  C     4.317177  5.106811  1.414493
  C     4.227294  8.304836  1.023239
  N     6.523310  5.530543  0.876078
  N     6.446263  9.083994  0.991281
  N     4.181420  5.028718  0.096909
  N     4.417446  8.291198 -0.299687
  N     4.044162  5.161173  3.943234
  N     3.464427  8.854064  3.391599
  S     3.132858  4.842157  2.656274
  S     2.780279  8.081281  2.066172
  S     5.682214  5.291990 -0.519351
  S     5.964519  8.694588 -0.555543
  S     5.626503  5.468498  3.623455
  S     5.059579  9.236661  3.415433
