16  
    
  C     5.996329  5.538539  2.175704
  C     5.936174  9.213612  1.538122
  C     4.711102  5.533514  1.539453
  C     4.743926  8.728079  0.934799
  N     6.986518  5.547876  1.279956
  N     6.997152  9.242411  0.743884
  N     4.741225  5.337513  0.212246
  N     4.912075  8.494798 -0.361985
  N     4.248824  5.809654  4.078852
  N     4.249211  9.035954  3.474656
  S     3.367594  5.737942  2.676033
  S     3.401863  8.777535  2.012152
  S     6.330992  5.301870 -0.224743
  S     6.552004  8.834236 -0.747667
  S     6.007041  5.868586  3.910159
  S     5.814207  9.512246  3.259005
