16  
    
  C    12.709376  8.903805  3.610328
  C    12.390858 12.794697  3.910432
  C    11.468584  8.433923  3.012070
  C    11.227895 12.251187  3.199701
  N    13.727076  8.960073  2.725999
  N    13.358671 13.182946  3.062322
  N    11.540522  8.305422  1.683606
  N    11.396894 12.066163  1.904662
  N    10.933610  8.575953  5.557354
  N    10.487311 12.501090  5.596255
  S    10.109634  8.187809  4.118106
  S     9.925305 11.743867  4.208985
  S    13.035810  8.692969  1.219362
  S    12.917129 12.578846  1.541947
  S    12.513481  9.128157  5.327201
  S    12.074859 13.146537  5.584417
