16  
    
  C     7.560313  6.236124  2.172160
  C     7.865388  9.947936  2.346576
  C     6.375764  5.683351  1.583953
  C     6.711276  9.382253  1.726475
  N     8.570174  6.449792  1.359854
  N     8.839034 10.313432  1.521194
  N     6.435691  5.497905  0.273883
  N     6.799274  9.236733  0.419779
  N     5.960713  5.725745  4.136543
  N     6.198034  9.731668  4.303586
  S     5.098147  5.350470  2.733681
  S     5.438325  9.048873  2.950932
  S     7.982081  6.037846 -0.156249
  S     8.210689  9.899884 -0.011745
  S     7.487371  6.278635  3.867411
  S     7.802820 10.150782  4.034917
