16  
    
  C     8.898098  7.132484  2.715655
  C     8.959873 11.022515  2.318197
  C     7.654611  6.490319  2.217701
  C     7.743016 10.521857  1.673368
  N     9.785343  7.375401  1.745724
  N     9.940622 11.390173  1.458194
  N     7.725239  6.153378  0.930286
  N     7.818078 10.588874  0.343884
  N     7.243481  6.887849  4.758663
  N     7.155005 10.591448  4.168064
  S     6.429614  6.264752  3.485884
  S     6.488599 10.028387  2.742269
  S     9.128726  6.788426  0.311715
  S     9.320076 11.193222 -0.039324
  S     8.704761  7.638723  4.376227
  S     8.709785 11.154639  4.056280
