16  
    
  C     6.773496  6.143846  2.400277
  C     7.272659  9.616046  2.176866
  C     5.675626  5.467639  1.803199
  C     5.995217  9.389473  1.561295
  N     7.594183  6.674260  1.500155
  N     8.258628  9.734678  1.308487
  N     5.737074  5.321198  0.485767
  N     6.002766  9.329332  0.239259
  N     5.336176  5.193240  4.352652
  N     5.514552  9.522290  4.038184
  S     4.563230  4.750421  2.903268
  S     4.637125  9.454167  2.601948
  S     7.087775  6.136036  0.007931
  S     7.563094  9.483329 -0.256125
  S     6.578931  6.221587  4.101185
  S     7.106990  9.815097  3.945843
