16  
    
  C     4.438998  4.942348  1.492993
  C     4.150365  8.691635  1.687393
  C     3.152863  4.715407  0.882725
  C     3.073454  8.226951  0.799895
  N     5.443150  5.133313  0.674367
  N     5.260610  9.032289  1.035044
  N     3.217517  4.686759 -0.443093
  N     3.325378  8.356252 -0.494357
  N     2.724547  5.112257  3.453986
  N     2.220286  7.823694  3.251504
  S     1.902355  4.577444  2.145511
  S     1.623584  7.742329  1.652856
  S     4.834476  4.815598 -0.871244
  S     4.891650  8.852354 -0.649441
  S     4.370809  5.156814  3.212048
  S     3.774403  8.494879  3.373693
