16  
    
  C     5.749149  5.148093  1.881361
  C     5.685657  9.300352  2.017316
  C     4.592355  4.569981  1.151858
  C     4.555518  8.584135  1.435668
  N     6.836325  5.263021  1.149307
  N     6.616536  9.630252  1.134924
  N     4.869860  4.225125 -0.113501
  N     4.677190  8.297350  0.140562
  N     3.944816  4.665135  3.741483
  N     4.114410  8.717097  4.004291
  S     3.205299  4.316652  2.217158
  S     3.353557  8.276915  2.604408
  S     6.458260  4.747236 -0.414864
  S     6.085804  8.977644 -0.317278
  S     5.515763  5.340349  3.615349
  S     5.613469  9.494410  3.717066
