16  
    
  C     9.317798  6.725516  2.414038
  C     9.238873 10.683009  2.888274
  C     8.110063  6.285091  1.738628
  C     8.016245 10.428006  2.215616
  N    10.439021  6.578773  1.680482
  N    10.332222 10.361415  2.171405
  N     8.286161  5.989491  0.449202
  N     8.144307 10.039191  0.937189
  N     7.354898  6.924942  4.085718
  N     7.422790 10.713223  4.685648
  S     6.670148  6.218619  2.765589
  S     6.617290 10.772878  3.234144
  S     9.873140  6.111724  0.165373
  S     9.737171  9.974410  0.656723
  S     9.010870  7.171370  4.060079
  S     9.065400 11.105526  4.563006
