16  
    
  C     5.264422  5.465619  1.741568
  C     5.128192  8.860605  1.308082
  C     4.004173  4.970551  1.320855
  C     3.837663  8.484262  0.754616
  N     6.211567  5.388921  0.803345
  N     6.090635  8.939915  0.401400
  N     3.872779  4.762133 -0.004935
  N     3.895920  8.108133 -0.521781
  N     3.676658  5.401733  3.842830
  N     3.495169  8.929000  3.282857
  S     2.748767  5.232931  2.430221
  S     2.618450  8.293351  1.997878
  S     5.413902  4.922352 -0.611165
  S     5.488945  8.433029 -1.029700
  S     5.224929  5.968507  3.448828
  S     5.102679  9.286236  2.977668
