16  
    
  C     7.829838  6.434015  2.359146
  C     7.936181 10.519481  2.038981
  C     6.693591  5.873929  1.606602
  C     6.688706  9.876840  1.590229
  N     8.916736  6.618998  1.650643
  N     8.850677 10.696494  1.102754
  N     6.901261  5.848304  0.308651
  N     6.754428  9.535921  0.326666
  N     5.917763  6.370783  4.070946
  N     6.483844 10.265943  4.116054
  S     5.298546  5.816203  2.593012
  S     5.517632  9.826231  2.851954
  S     8.492790  6.344326  0.083525
  S     8.310502 10.074135 -0.249140
  S     7.522609  6.597854  4.013533
  S     8.032268 10.745390  3.724110
