16  
    
  C     4.730644  5.016948  1.991736
  C     4.726017  8.859614  1.660082
  C     3.535876  4.619032  1.267034
  C     3.470154  8.570071  1.068128
  N     5.853133  4.981074  1.267703
  N     5.661962  9.215084  0.769833
  N     3.737092  4.529008 -0.061471
  N     3.503835  8.516384 -0.259819
  N     2.912972  4.815237  3.777610
  N     3.095428  8.173596  3.631753
  S     2.127993  4.458444  2.390793
  S     2.257656  7.971995  2.197118
  S     5.398948  4.812192 -0.297883
  S     5.010116  9.010578 -0.709696
  S     4.565643  5.015999  3.667615
  S     4.635683  8.866431  3.429765
