16  
    
  C    12.237250  8.883220  3.540515
  C    11.997677 12.523079  3.438611
  C    11.073931  8.475615  2.779985
  C    10.716145 12.263544  2.800023
  N    13.292990  9.240922  2.812357
  N    13.029380 12.444844  2.593945
  N    11.237310  8.360185  1.481939
  N    10.801647 12.138393  1.496200
  N    10.281122  8.685623  5.280660
  N    10.248623 12.113418  5.323177
  S     9.602809  8.349546  3.717431
  S     9.515077 11.862314  3.895357
  S    12.813780  8.841202  1.211561
  S    12.359503 12.299920  1.046115
  S    11.881936  9.171181  5.169566
  S    11.817794 12.612603  5.202945
