16  
    
  C    12.706234  9.151606  3.357628
  C    12.659264 12.957907  3.459250
  C    11.468222  8.769167  2.770424
  C    11.561291 12.308883  2.784393
  N    13.740657  9.247425  2.541328
  N    13.789981 13.081079  2.760312
  N    11.558051  8.607035  1.435539
  N    11.815414 12.145060  1.480056
  N    11.144659  8.895563  5.303048
  N    10.818249 12.517756  5.272863
  S    10.176830  8.511557  4.022473
  S    10.140356 12.028180  3.811699
  S    13.201440  8.752548  1.000513
  S    13.399529 12.700879  1.238695
  S    12.606495  9.493142  5.030928
  S    12.355471 13.231641  5.203352
