16  
    
  C    10.972957  7.640826  3.138855
  C    11.199853 11.759951  2.810442
  C     9.739753  7.455269  2.486950
  C     9.955377 11.197734  2.216849
  N    12.028661  7.843090  2.347614
  N    12.182528 11.913592  1.930406
  N     9.823635  7.550261  1.151918
  N    10.090976 10.802146  0.944616
  N     9.192681  7.696169  4.979721
  N     9.516760 11.767251  4.657834
  S     8.375457  7.191071  3.520042
  S     8.784778 10.903672  3.451304
  S    11.429061  7.673450  0.780170
  S    11.620928 11.396252  0.514268
  S    10.831507  7.650166  4.882828
  S    11.123943 12.116364  4.557790
