16  
    
  C     5.387245  5.605330  1.749564
  C     5.191267  8.909213  1.774861
  C     4.185665  5.380039  0.954558
  C     3.970289  8.574813  1.069661
  N     6.512279  5.596044  1.012570
  N     6.258261  9.068288  0.993914
  N     4.409338  5.094885 -0.309266
  N     4.064702  8.675252 -0.251090
  N     3.436769  5.320662  3.347941
  N     3.372477  8.528330  3.584334
  S     2.786908  5.098685  1.894964
  S     2.630688  8.181417  2.121312
  S     6.028971  5.311837 -0.566117
  S     5.719821  8.972708 -0.590483
  S     4.982400  5.752281  3.412498
  S     5.021908  8.886994  3.533580
