16  
    
  C    11.014396  8.207885  2.950823
  C    10.925009 11.547900  2.928922
  C     9.917567  7.422940  2.534041
  C     9.690790 11.066504  2.317588
  N    11.903385  8.499592  1.993173
  N    11.917242 11.833777  2.041109
  N     9.961071  7.101083  1.244239
  N     9.702258 11.184216  0.978417
  N     9.544858  7.934649  5.057587
  N     9.116494 11.291814  4.862685
  S     8.777744  7.135219  3.764517
  S     8.346152 10.896495  3.413893
  S    11.264745  7.913368  0.597521
  S    11.216537 11.610799  0.561907
  S    10.951801  8.699945  4.604678
  S    10.722436 11.751902  4.636554
