16  
    
  C     8.321846  6.659408  2.261826
  C     8.150874 10.129879  2.612930
  C     7.129774  6.088391  1.677624
  C     7.065486  9.453052  1.945266
  N     9.378495  6.693812  1.471539
  N     9.167165 10.396073  1.832043
  N     7.247619  5.781161  0.399771
  N     7.279555  9.208159  0.653042
  N     6.660436  6.468482  4.261993
  N     6.255030  9.807265  4.317852
  S     5.756490  6.055441  2.837749
  S     5.641595  9.166943  2.915168
  S     8.889107  6.125012 -0.025661
  S     8.816175  9.879837  0.307118
  S     8.160262  7.090980  3.935233
  S     7.783599 10.443937  4.272272
