16  
    
  C     8.673085  7.208626  2.678311
  C     8.931580 10.979920  2.299373
  C     7.519252  6.502348  2.181880
  C     7.733514 10.531839  1.584726
  N     9.647045  7.460744  1.822445
  N     9.915038 11.408337  1.526952
  N     7.594199  6.296791  0.867068
  N     7.846899 10.634496  0.247812
  N     7.198788  7.001224  4.737039
  N     7.222006 10.470055  4.124844
  S     6.365944  6.188154  3.463944
  S     6.455771 10.072563  2.703022
  S     9.125757  6.840522  0.395960
  S     9.399363 11.186444 -0.080050
  S     8.706663  7.554994  4.329133
  S     8.758884 11.132438  3.988956
