16  
    
  C    10.376203  7.201720  2.772763
  C    10.274061 11.022141  2.792879
  C     9.109810  7.239419  2.096121
  C     8.999427 10.819047  2.152207
  N    11.458708  7.097722  1.987610
  N    11.301905 11.160042  1.967256
  N     9.175622  7.299717  0.750357
  N     9.133728 10.689169  0.839899
  N     8.584764  7.457725  4.650411
  N     8.517414 10.874900  4.694359
  S     7.777531  7.150230  3.178308
  S     7.651717 10.785138  3.244631
  S    10.803129  7.173216  0.425276
  S    10.708568 10.943911  0.431986
  S    10.281273  7.326055  4.531377
  S    10.180524 11.024282  4.527699
