16  
    
  C     7.609214  6.589660  2.281212
  C     7.745596 10.017453  2.373398
  C     6.325525  6.088373  1.843933
  C     6.554831  9.687683  1.658829
  N     8.554881  6.577016  1.337789
  N     8.872499 10.108070  1.640534
  N     6.303813  5.791864  0.543903
  N     6.710621  9.525622  0.366163
  N     6.041356  6.341046  4.372453
  N     5.774956  9.998885  4.105914
  S     5.077571  6.074223  3.078861
  S     5.139791  9.529590  2.642026
  S     7.765131  6.069789 -0.060344
  S     8.305065  9.868826  0.049424
  S     7.728984  6.754225  4.045400
  S     7.466054 10.277954  4.106078
