16  
    
  C     6.608611  5.814757  1.917081
  C     6.585920  9.563975  1.839061
  C     5.263193  5.584172  1.387042
  C     5.389595  9.024814  1.265256
  N     7.590680  5.896574  1.014023
  N     7.598890  9.713353  0.992632
  N     5.315320  5.217179  0.101826
  N     5.471271  8.845057 -0.071277
  N     5.011534  5.734776  3.962726
  N     4.943605  9.076993  3.875312
  S     3.971854  5.408088  2.621664
  S     4.058104  8.873619  2.463597
  S     6.860486  5.454611 -0.427473
  S     7.023879  9.269370 -0.482760
  S     6.608838  6.029396  3.636338
  S     6.568264  9.694674  3.587822
