16  
    
  C    12.052451  8.510503  3.602983
  C    12.119212 12.035793  3.315920
  C    10.888497  8.185251  2.856381
  C    10.925643 11.531195  2.708606
  N    13.163903  8.796804  2.916686
  N    13.181748 12.187970  2.544089
  N    11.142696  8.119293  1.551813
  N    11.049935 11.359194  1.400196
  N    10.098206  8.343737  5.369107
  N    10.297938 11.966324  5.239401
  S     9.448146  7.996638  3.858312
  S     9.534936 11.371129  3.806762
  S    12.765755  8.401884  1.323263
  S    12.603450 11.950302  1.046931
  S    11.754837  8.723374  5.286021
  S    11.918663 12.454094  4.969776
