16  
    
  C     9.839476  7.655461  2.708876
  C     9.894580 11.244668  2.930724
  C     8.625923  7.331644  2.021758
  C     8.681923 10.839823  2.245792
  N    10.895373  7.835381  1.933249
  N    10.976074 11.360343  2.161253
  N     8.812090  7.221490  0.716718
  N     8.842798 10.771067  0.918141
  N     8.145981  7.282644  4.552314
  N     8.021834 11.021584  4.730501
  S     7.283148  7.200151  3.139080
  S     7.307706 10.648730  3.293079
  S    10.414274  7.585318  0.415547
  S    10.424018 11.076014  0.604827
  S     9.751780  7.771048  4.440445
  S     9.643818 11.368709  4.650630
