16  
    
  C    12.001423  8.795877  3.384540
  C    11.873151 12.191857  3.283351
  C    10.743443  8.536535  2.714487
  C    10.591956 11.777947  2.752945
  N    13.095854  8.890287  2.673266
  N    12.785977 12.416866  2.336268
  N    10.931228  8.445022  1.401223
  N    10.533761 11.773381  1.398892
  N    10.232679  8.495400  5.232151
  N    10.283421 12.108756  5.355049
  S     9.404172  8.268576  3.800759
  S     9.333163 11.866095  3.941302
  S    12.550542  8.654124  1.080146
  S    12.050013 12.200402  0.858908
  S    11.890982  8.766923  5.113007
  S    11.915602 12.171477  4.961195
