16  
    
  C    12.342732  9.113229  3.701728
  C    12.595921 12.794086  3.564153
  C    11.280978  8.390579  3.059098
  C    11.345913 12.547052  2.933668
  N    13.318351  9.485211  2.888043
  N    13.541987 13.016449  2.652155
  N    11.389426  8.290723  1.756762
  N    11.301343 12.313974  1.620375
  N    10.646983  8.460863  5.495834
  N    10.803531 12.706899  5.456157
  S     9.959981  7.969348  4.070439
  S    10.070890 12.229427  4.066444
  S    12.818740  9.068979  1.333481
  S    12.888494 12.621677  1.184468
  S    12.044046  9.234904  5.472173
  S    12.472852 12.871810  5.280159
