16  
    
  C     9.155842  7.106686  2.318819
  C     9.032258 10.687208  2.366819
  C     7.938205  6.601107  1.743474
  C     7.822132 10.156797  1.782163
  N    10.125183  7.196861  1.413957
  N    10.053485 10.828799  1.514499
  N     7.994316  6.335027  0.460839
  N     7.884703  9.986775  0.475568
  N     7.399242  6.760594  4.200651
  N     7.163235 10.702523  4.170867
  S     6.611662  6.347032  2.809181
  S     6.471703 10.052382  2.803746
  S     9.502456  6.654749 -0.039589
  S     9.439590 10.382675 -0.031270
  S     9.026006  7.239042  4.084335
  S     8.787297 10.964990  4.069840
