16  
    
  C     7.742127  6.583588  2.449483
  C     7.800125 10.053914  2.083024
  C     6.513200  6.172631  1.761913
  C     6.518429  9.868625  1.383418
  N     8.829853  6.679676  1.665153
  N     8.900839 10.011138  1.314862
  N     6.725214  5.838756  0.471031
  N     6.683383  9.778516  0.046383
  N     5.834240  6.730982  4.205342
  N     6.077211 10.195724  3.960691
  S     5.097190  6.143186  2.888541
  S     5.200477  9.943707  2.608313
  S     8.338300  6.154930  0.167651
  S     8.285875  9.814520 -0.263838
  S     7.499622  7.069903  4.093973
  S     7.697898 10.475201  3.718641
