16  
    
  C     6.805843  6.116594  2.313159
  C     7.262813  9.740262  2.137447
  C     5.812198  5.417835  1.564751
  C     6.028791  9.500395  1.488648
  N     7.911029  6.378948  1.615286
  N     8.272444  9.840245  1.298822
  N     6.070504  5.343363  0.268451
  N     6.066469  9.283414  0.202363
  N     4.868510  5.638576  3.916440
  N     5.523104  9.651846  4.043491
  S     4.449183  4.964540  2.456922
  S     4.706272  9.343993  2.555945
  S     7.580566  5.963049  0.037748
  S     7.685385  9.510607 -0.241312
  S     6.433707  6.089804  4.047980
  S     7.107680  9.817678  3.893904
