16  
    
  C     6.190999  5.596144  2.086408
  C     6.080293  9.249048  1.610151
  C     4.844269  5.484808  1.519019
  C     4.862140  8.705204  1.050664
  N     7.164701  5.632544  1.167566
  N     7.035492  9.295239  0.682656
  N     4.910275  5.178668  0.225323
  N     4.893586  8.481059 -0.250352
  N     4.424802  5.872334  4.000928
  N     4.269061  9.301910  3.437219
  S     3.518523  5.624008  2.644144
  S     3.504455  8.565122  2.069451
  S     6.447394  5.337745 -0.293877
  S     6.422041  8.891194 -0.753504
  S     6.165261  5.923296  3.779985
  S     5.917599  9.398441  3.299850
