16  
    
  C     9.000879  7.106474  2.715651
  C     8.904216 11.067689  2.360842
  C     7.817753  6.444528  2.239056
  C     7.701380 10.517355  1.732883
  N     9.834246  7.328251  1.696138
  N     9.816539 11.459142  1.496696
  N     7.808323  6.125601  0.955563
  N     7.775381 10.437356  0.406597
  N     7.422990  6.845172  4.711637
  N     7.122479 10.755006  4.154647
  S     6.561637  6.326488  3.356106
  S     6.502311 10.026266  2.788609
  S     9.185863  6.702125  0.346539
  S     9.284870 11.101519 -0.007778
  S     8.845407  7.650387  4.371337
  S     8.722266 11.170494  4.106723
