16  
    
  C     9.425791  7.025611  2.962349
  C     9.649884 10.754715  2.590837
  C     8.262381  6.565961  2.273667
  C     8.459852 10.336925  1.966285
  N    10.376435  7.353014  2.122085
  N    10.583879 11.153747  1.742296
  N     8.316289  6.478747  0.957079
  N     8.468707 10.244574  0.651229
  N     7.596332  6.490157  4.762695
  N     7.951890 10.340309  4.555223
  S     6.990605  5.983796  3.298420
  S     7.152283  9.872861  3.126966
  S     9.826387  7.100823  0.557262
  S    10.015798 10.894776  0.220795
  S     9.210571  6.909607  4.742895
  S     9.509795 10.875763  4.336005
