16  
    
  C     6.017024  5.577586  2.170930
  C     5.965222  9.233204  1.577290
  C     4.660550  5.585301  1.556516
  C     4.730981  8.817860  0.909617
  N     7.034955  5.512696  1.298301
  N     7.050868  9.215261  0.820794
  N     4.701118  5.365891  0.249380
  N     4.901837  8.526196 -0.376525
  N     4.251202  5.826393  4.090780
  N     4.169068  9.004449  3.462937
  S     3.303496  5.721000  2.649777
  S     3.378768  8.786049  2.006862
  S     6.298574  5.291009 -0.204417
  S     6.526501  8.810837 -0.716610
  S     5.947115  5.854630  3.930821
  S     5.803608  9.527276  3.236157
