16  
    
  C     3.462017  4.589898  1.478592
  C     3.578256  8.367564  1.233666
  C     2.329034  4.056454  0.844035
  C     2.315384  8.054821  0.686392
  N     4.517607  4.785935  0.706034
  N     4.575645  8.450081  0.353288
  N     2.552252  3.829255 -0.452090
  N     2.233401  8.082783 -0.633512
  N     1.684846  4.264125  3.335296
  N     1.905499  8.136185  3.221870
  S     1.058816  3.591531  1.968719
  S     1.019276  7.798780  1.835590
  S     4.082296  4.288785 -0.810772
  S     3.776195  8.307768 -1.135004
  S     3.281951  4.821929  3.167480
  S     3.498866  8.580756  2.954307
