16  
    
  C    11.406050  8.582013  3.367966
  C    11.495589 12.414761  3.332939
  C    10.260325  7.951457  2.782378
  C    10.365259 11.705037  2.742088
  N    12.411275  8.725077  2.526027
  N    12.558080 12.629706  2.523162
  N    10.327541  7.629829  1.499058
  N    10.529245 11.462586  1.457429
  N     9.526114  8.534281  5.173563
  N     9.593097 12.151380  5.060583
  S     8.923381  7.691654  3.885428
  S     8.939797 11.572274  3.702276
  S    11.899468  8.129824  1.035373
  S    12.033469 11.966956  0.966404
  S    11.079108  9.188016  4.979704
  S    11.123292 12.692502  5.021799
