16  
    
  C    12.073690  8.559075  3.554421
  C    12.159178 12.344582  3.296203
  C    10.895358  8.231357  2.823743
  C    11.019367 11.746824  2.668170
  N    13.128177  8.725372  2.754054
  N    13.245454 12.345271  2.512448
  N    11.063434  8.061453  1.527597
  N    11.137521 11.455080  1.371231
  N    10.144150  8.304647  5.307710
  N    10.261360 11.940622  5.169005
  S     9.494793  8.047734  3.823264
  S     9.663918 11.241582  3.679658
  S    12.645836  8.401191  1.216964
  S    12.769423 11.780961  1.031073
  S    11.800121  8.771279  5.243350
  S    11.857988 12.478111  5.043592
