16  
    
  C    12.705471  8.861390  3.879914
  C    12.622028 12.762939  3.914261
  C    11.558427  8.351368  3.240806
  C    11.495574 12.352660  3.156121
  N    13.648224  9.242689  3.051009
  N    13.704537 12.968604  3.140541
  N    11.567656  8.301963  1.927788
  N    11.718281 11.986592  1.873084
  N    11.022536  8.605014  5.770987
  N    10.741569 12.372414  5.661451
  S    10.309922  8.097976  4.371333
  S    10.154739 11.848107  4.193902
  S    13.098403  8.893367  1.489798
  S    13.298407 12.522589  1.624121
  S    12.608737  9.086648  5.578719
  S    12.319613 12.682817  5.626354
