16  
    
  C     6.719019  5.794160  2.238157
  C     6.782986  9.739646  2.324705
  C     5.399998  5.435045  1.729022
  C     5.518642  9.255740  1.747117
  N     7.630523  6.129945  1.316845
  N     7.707450  9.970475  1.427792
  N     5.451099  5.303146  0.397364
  N     5.537193  9.205076  0.411429
  N     5.122191  5.515913  4.285736
  N     5.145717  9.557117  4.264402
  S     4.167986  5.121669  2.966032
  S     4.240151  9.088610  2.955465
  S     6.956474  5.760750 -0.159328
  S     7.146134  9.585526 -0.037798
  S     6.743054  6.009467  3.963255
  S     6.774790  9.922187  4.011151
