16  
    
  C     7.323745  6.035337  2.189022
  C     7.792129  9.735482  2.234697
  C     6.180768  5.498800  1.493406
  C     6.555857  9.390056  1.641734
  N     8.376118  6.224808  1.380535
  N     8.743771  9.922423  1.368958
  N     6.323064  5.568118  0.158597
  N     6.572926  9.269427  0.315544
  N     5.620457  5.612028  4.104944
  N     6.224167  9.435352  4.285173
  S     4.848317  5.175165  2.624470
  S     5.276069  9.285124  2.875445
  S     7.915644  5.955464 -0.173203
  S     8.213913  9.607090 -0.128671
  S     7.212413  6.100045  3.928083
  S     7.825193  9.886294  3.945825
