16  
    
  C    11.438122  8.845779  3.226129
  C    11.405992 12.277724  3.264471
  C    10.340626  8.040668  2.692510
  C    10.236643 11.870825  2.550227
  N    12.357871  9.081912  2.313179
  N    12.490281 12.552043  2.495035
  N    10.508380  7.683937  1.442817
  N    10.438080 11.798411  1.235708
  N     9.827847  8.340861  5.195347
  N     9.511498 11.797872  5.089456
  S     9.040664  7.764096  3.873227
  S     8.897444 11.329607  3.556842
  S    11.925382  8.313763  0.906305
  S    12.035764 12.195414  0.979274
  S    11.342054  9.035384  4.949011
  S    11.083623 12.411454  4.941944
