16  
    
  C     3.606581  4.717581  1.546836
  C     3.837299  8.322735  1.694258
  C     2.388342  4.367147  0.884762
  C     2.558788  7.928470  1.068711
  N     4.633451  4.929406  0.777668
  N     4.867830  8.343651  0.874329
  N     2.539024  4.327852 -0.431968
  N     2.644236  7.688833 -0.215246
  N     2.008898  4.365965  3.436164
  N     2.137643  8.320488  3.573389
  S     1.035579  4.259407  2.042432
  S     1.289965  7.880659  2.214779
  S     4.139716  4.673413 -0.782839
  S     4.241254  7.908306 -0.621192
  S     3.552545  4.883335  3.212872
  S     3.727981  8.712704  3.386679
