16  
    
  C     5.380048  5.414812  1.747396
  C     5.144737  8.880670  1.722851
  C     4.138221  5.090485  1.063221
  C     3.894855  8.498651  1.056713
  N     6.461452  5.466242  0.990666
  N     6.105273  9.264384  0.875574
  N     4.328309  5.022074 -0.259612
  N     4.017725  8.407301 -0.271020
  N     3.547268  5.391353  3.587036
  N     3.354296  8.610169  3.633254
  S     2.744531  5.236527  2.160076
  S     2.538888  8.339029  2.189618
  S     5.946080  5.281145 -0.537498
  S     5.508924  8.910182 -0.664777
  S     5.188670  5.575963  3.429291
  S     5.020385  8.883728  3.487917
