16  
    
  C     9.976816  7.588174  2.666196
  C     9.881940 11.265616  3.003835
  C     8.681813  7.370374  2.057166
  C     8.692325 10.806746  2.255235
  N    10.993195  7.735040  1.794703
  N    10.933188 11.552733  2.211744
  N     8.714312  7.296591  0.720748
  N     8.942800 10.623490  0.943672
  N     8.145985  7.361894  4.602436
  N     7.975901 11.094603  4.715173
  S     7.357874  7.209206  3.122265
  S     7.382702 10.498186  3.285437
  S    10.265966  7.555015  0.275326
  S    10.488723 11.110595  0.625851
  S     9.759125  7.778134  4.424571
  S     9.639652 11.397913  4.697628
