16  
    
  C    12.500093  9.060907  3.365101
  C    12.295375 12.783274  3.598274
  C    11.342855  8.552692  2.708614
  C    11.151465 12.172431  3.011804
  N    13.554349  9.395255  2.603970
  N    13.192768 13.131013  2.698011
  N    11.567945  8.362170  1.422668
  N    11.220575 11.856574  1.733476
  N    10.779731  8.542815  5.202600
  N    10.688853 12.281887  5.503513
  S    10.011508  8.258969  3.793577
  S     9.889659 11.899023  4.146755
  S    13.071494  8.881558  1.088829
  S    12.583604 12.624977  1.201459
  S    12.283463  9.031185  5.143679
  S    12.124691 13.142552  5.246983
