16  
    
  C    12.500190  9.069121  3.367075
  C    12.298435 12.779614  3.598815
  C    11.349609  8.551040  2.703798
  C    11.156160 12.181818  3.008373
  N    13.551581  9.399682  2.602548
  N    13.195577 13.126794  2.693054
  N    11.558201  8.366240  1.418081
  N    11.224657 11.852422  1.731904
  N    10.773939  8.535921  5.204038
  N    10.688961 12.283277  5.504161
  S    10.011829  8.257828  3.782870
  S     9.891031 11.900006  4.145923
  S    13.071093  8.883232  1.088883
  S    12.577366 12.623940  1.197059
  S    12.281236  9.033560  5.147870
  S    12.125604 13.140764  5.244460
