16  
    
  C    12.057345  8.518601  3.605810
  C    12.115820 12.051434  3.316635
  C    10.897864  8.195822  2.855002
  C    10.925182 11.520306  2.716778
  N    13.156456  8.796142  2.903259
  N    13.193839 12.184676  2.545339
  N    11.143303  8.121363  1.559480
  N    11.041238 11.372295  1.399255
  N    10.096330  8.340844  5.353162
  N    10.297691 11.964618  5.247172
  S     9.448206  7.998942  3.855410
  S     9.553455 11.362066  3.794251
  S    12.764343  8.397578  1.320829
  S    12.614642 11.943980  1.047850
  S    11.754749  8.722684  5.290719
  S    11.911891 12.461008  4.974298
