16  
    
  C     6.887440  5.816395  2.204934
  C     7.173848  9.821940  2.310785
  C     5.824143  5.488958  1.269037
  C     5.967868  9.442724  1.609122
  N     8.102867  5.989108  1.645638
  N     8.249218  9.982874  1.532982
  N     6.253665  5.147381  0.038830
  N     6.116712  9.362401  0.274021
  N     4.756388  5.598902  3.682669
  N     5.492063  9.438377  4.158271
  S     4.314082  5.280368  2.081825
  S     4.663382  9.374294  2.787794
  S     7.873853  5.526822  0.052929
  S     7.706918  9.718374 -0.024179
  S     6.319047  6.160671  3.837233
  S     7.056596 10.034428  4.006185
