16  
    
  C    12.727223  8.969539  3.805279
  C    12.507369 12.665142  3.965397
  C    11.514731  8.447782  3.192476
  C    11.358723 12.159567  3.212414
  N    13.686763  9.204858  2.937647
  N    13.558518 13.030739  3.234542
  N    11.630204  8.223768  1.913217
  N    11.647972 11.952283  1.923056
  N    10.991095  8.476731  5.668620
  N    10.684436 12.290192  5.690842
  S    10.190661  8.162887  4.290970
  S     9.987384 11.905835  4.178277
  S    13.110223  8.697005  1.408131
  S    13.191556 12.630797  1.700711
  S    12.568453  9.032442  5.494628
  S    12.173488 12.985231  5.663880
