16  
    
  C    11.039712  8.144801  2.964349
  C    10.859106 11.784092  3.050592
  C     9.817432  7.709452  2.339001
  C     9.680070 11.331228  2.416524
  N    12.030255  8.326157  2.070578
  N    11.899773 12.136172  2.264131
  N     9.894808  7.584103  1.013727
  N     9.899052 11.117041  1.112729
  N     9.279127  7.823331  4.794059
  N     9.021816 11.606827  4.842357
  S     8.474085  7.569937  3.398791
  S     8.277683 11.131400  3.467387
  S    11.429917  8.004345  0.593370
  S    11.349541 11.708640  0.738118
  S    10.774940  8.493849  4.659671
  S    10.568937 12.206510  4.701178
