16  
    
  C     9.012423  7.071859  2.699984
  C     8.881982 11.062594  2.346172
  C     7.827900  6.491632  2.217286
  C     7.719282 10.513487  1.707921
  N     9.842967  7.353928  1.696562
  N     9.790563 11.488820  1.474544
  N     7.820641  6.119328  0.939241
  N     7.785163 10.419999  0.408403
  N     7.424895  6.846597  4.684184
  N     7.130894 10.771737  4.165184
  S     6.567428  6.323632  3.369423
  S     6.475997 10.024864  2.815494
  S     9.221676  6.691853  0.356577
  S     9.295507 11.072636  0.006516
  S     8.890431  7.635897  4.345840
  S     8.724138 11.174609  4.109465
