16  
    
  C     5.987081  4.867541  1.746362
  C     5.943406  9.107418  1.982231
  C     4.806704  4.419966  0.988246
  C     4.672379  8.688287  1.339579
  N     7.132306  4.972658  1.030248
  N     6.982235  9.298706  1.150241
  N     4.985381  4.462033 -0.329416
  N     4.837645  8.452856  0.051235
  N     4.012887  4.844840  3.403325
  N     4.156104  8.916124  3.897445
  S     3.377294  4.303247  1.983352
  S     3.341402  8.429422  2.466039
  S     6.615120  4.834220 -0.562193
  S     6.346080  8.907828 -0.383143
  S     5.630157  5.018495  3.438975
  S     5.673843  9.559425  3.627005
