16  
    
  C     5.613113  5.251513  1.852862
  C     5.349071  8.868863  1.721188
  C     4.287060  5.084710  1.399639
  C     4.169582  8.361514  1.048108
  N     6.500766  5.481041  0.900899
  N     6.438664  9.053483  0.968968
  N     4.162667  5.106964  0.075185
  N     4.337056  8.297882 -0.259360
  N     4.039170  5.151295  3.986940
  N     3.429612  8.800868  3.426156
  S     3.085704  4.891134  2.630190
  S     2.767724  8.101058  2.050851
  S     5.684000  5.278376 -0.532210
  S     5.929205  8.699726 -0.564448
  S     5.674280  5.472870  3.594409
  S     5.007019  9.263251  3.357823
