16  
    
  C     7.358371  5.976888  2.226231
  C     7.769960  9.636974  2.344566
  C     6.168660  5.621656  1.528045
  C     6.530344  9.354506  1.703494
  N     8.411857  6.214708  1.465237
  N     8.780722  9.809044  1.477231
  N     6.300808  5.449820  0.230594
  N     6.576451  9.253665  0.378413
  N     5.462966  5.635129  3.924602
  N     5.954272  9.716967  4.167577
  S     4.823355  5.220381  2.473535
  S     5.152466  9.269340  2.797990
  S     7.874014  5.920226 -0.093340
  S     8.078258  9.629657 -0.069929
  S     7.060512  6.025425  3.914674
  S     7.624130  9.762595  4.048375
