16  
    
  C     5.789854  5.569516  1.937787
  C     5.916826  9.082734  2.067945
  C     4.517248  5.385732  1.260087
  C     4.701870  8.701598  1.385413
  N     6.867552  5.578385  1.130649
  N     7.012172  9.093309  1.287766
  N     4.652613  4.969727 -0.003535
  N     4.848062  8.468129  0.079578
  N     3.923074  5.597445  3.811639
  N     4.050401  8.917999  3.909575
  S     3.153812  5.332740  2.379325
  S     3.252241  8.624129  2.393316
  S     6.298388  5.089020 -0.356478
  S     6.389322  8.719075 -0.259694
  S     5.612468  5.798032  3.611523
  S     5.709143  9.090030  3.787353
