16  
    
  C     6.782334  5.882402  2.369563
  C     7.011049  9.738348  2.343168
  C     5.530840  5.308338  1.879013
  C     5.746521  9.276064  1.746995
  N     7.513358  6.415455  1.385771
  N     7.974130  9.979095  1.455324
  N     5.524084  5.179494  0.550114
  N     5.762931  9.273935  0.437788
  N     5.232569  5.513579  4.419576
  N     5.149709  9.717899  4.213645
  S     4.368928  4.829631  3.062397
  S     4.420131  9.206837  2.811030
  S     6.847106  5.960956 -0.078488
  S     7.280833  9.707818 -0.086951
  S     6.778980  6.074049  4.134874
  S     6.819459  9.897905  4.087269
