16  
    
  C    11.377587  8.804052  3.221951
  C    11.378970 12.351827  3.245636
  C    10.280684  8.019677  2.680465
  C    10.232711 11.814377  2.556174
  N    12.354145  9.092391  2.338368
  N    12.501603 12.451453  2.565500
  N    10.458440  7.650522  1.384597
  N    10.498083 11.754743  1.260699
  N     9.828872  8.384611  5.215200
  N     9.601070 11.770444  5.012216
  S     9.029894  7.762142  3.888012
  S     8.880772 11.351382  3.586942
  S    11.930129  8.261030  0.953673
  S    12.065141 12.215446  0.983952
  S    11.271823  9.085995  4.973135
  S    11.088032 12.485847  4.938697
