16  
    
  C     4.548277  5.187429  1.642820
  C     4.420902  8.478774  1.481131
  C     3.277507  4.827416  1.038507
  C     3.258756  7.911012  0.896952
  N     5.521522  5.274376  0.730649
  N     5.472098  8.513087  0.660507
  N     3.332985  4.488730 -0.241206
  N     3.380266  7.683808 -0.417600
  N     2.768487  4.874736  3.576465
  N     2.623857  8.718288  3.253230
  S     2.026136  4.462626  2.134672
  S     1.891083  7.880639  2.024520
  S     4.891458  4.886717 -0.795668
  S     4.934491  8.036074 -0.816864
  S     4.338340  5.427426  3.423348
  S     4.221620  8.889050  3.202909
