16  
    
  C    12.226513  9.164005  3.585484
  C    12.475327 12.879880  3.493643
  C    11.227011  8.467975  2.896589
  C    11.283170 12.324356  2.934302
  N    13.226566  9.658216  2.866117
  N    13.450221 13.024633  2.612977
  N    11.509288  8.391161  1.592243
  N    11.287086 12.181623  1.614126
  N    10.612813  8.378251  5.481522
  N    10.853561 12.687466  5.496057
  S     9.925609  7.915998  3.958484
  S     9.947594 12.211925  4.165693
  S    12.905126  9.166845  1.331721
  S    12.865713 12.547306  1.105336
  S    12.116571  9.213264  5.281486
  S    12.512461 12.902724  5.238932
