16  
    
  C     8.934065  7.123814  2.361464
  C     9.158880 10.841714  2.361987
  C     7.774292  6.699075  1.609538
  C     7.905933 10.457641  1.763731
  N    10.024044  7.369332  1.612514
  N    10.164807 10.992112  1.491787
  N     7.983163  6.878350  0.278788
  N     7.958605 10.340493  0.428190
  N     7.154770  6.586678  4.177287
  N     7.455171 10.591872  4.319131
  S     6.359891  6.447917  2.713461
  S     6.597320 10.468926  2.906690
  S     9.557670  7.309632  0.054802
  S     9.592048 10.674783  0.015649
  S     8.697168  7.146482  4.078922
  S     9.060625 10.975674  4.091336
