16  
    
  C    12.746420  9.289607  3.325309
  C    12.659675 12.954941  3.571170
  C    11.483533  8.771419  2.767771
  C    11.517952 12.464916  2.800187
  N    13.792147  9.259592  2.496433
  N    13.702361 13.232257  2.812544
  N    11.602967  8.538770  1.476194
  N    11.821377 12.219034  1.532984
  N    11.000606  8.937346  5.308618
  N    10.834142 12.552161  5.308382
  S    10.178431  8.547582  3.888848
  S    10.140819 12.034314  3.837430
  S    13.205829  8.805490  1.061045
  S    13.397254 12.613404  1.237982
  S    12.640046  9.502538  5.068019
  S    12.346998 13.250967  5.249652
