16  
    
  C    12.372722  9.065743  3.366593
  C    12.305199 12.803927  3.463046
  C    11.278080  8.489517  2.639091
  C    11.087303 12.240776  2.923820
  N    13.476648  9.417546  2.697935
  N    13.250271 12.962348  2.556242
  N    11.497409  8.566309  1.317961
  N    11.063997 12.013149  1.611119
  N    10.550462  8.434931  5.204391
  N    10.753575 12.723612  5.466613
  S     9.971099  8.060513  3.684065
  S    10.010156 11.813285  4.235878
  S    13.086223  9.212606  1.100381
  S    12.625274 12.479952  1.159145
  S    12.094388  9.187839  5.047701
  S    12.332028 13.034773  5.122114
