16  
    
  C    10.163561  7.705781  2.612492
  C    10.576856 11.369285  2.970538
  C     9.005321  7.081090  2.050050
  C     9.385605 11.265452  2.179945
  N    11.207606  7.898923  1.778809
  N    11.728699 11.471409  2.255042
  N     9.204014  6.748566  0.771635
  N     9.591132 11.049745  0.856402
  N     8.352710  7.723043  4.438598
  N     8.521317 11.463069  4.603260
  S     7.686520  6.957821  3.140735
  S     7.943162 11.366202  3.060528
  S    10.658176  7.370894  0.329665
  S    11.260750 11.250973  0.692290
  S     9.911585  8.098389  4.286286
  S    10.185381 11.584471  4.689129
