16  
    
  C     6.611691  5.749202  2.043874
  C     6.622486  9.413755  1.879472
  C     5.326835  5.425503  1.457787
  C     5.439616  8.866887  1.240944
  N     7.566980  5.915152  1.141703
  N     7.653336  9.647073  1.052873
  N     5.345008  5.169329  0.156054
  N     5.536051  8.722022 -0.067987
  N     4.862757  5.781869  3.974323
  N     4.828091  8.966653  3.787269
  S     4.040072  5.329761  2.652496
  S     4.086930  8.635377  2.319038
  S     6.906106  5.563630 -0.343852
  S     7.004851  9.307187 -0.525900
  S     6.518062  6.087185  3.722699
  S     6.411045  9.642946  3.658629
