16  
    
  C     8.536494  6.700421  2.298678
  C     8.281816 10.305976  2.610650
  C     7.346496  6.192379  1.759016
  C     7.242829  9.652745  1.883276
  N     9.543155  6.866975  1.470699
  N     9.405634 10.618394  1.938501
  N     7.347607  6.016904  0.455306
  N     7.495209  9.426570  0.612747
  N     6.945750  6.409834  4.316108
  N     6.296160  9.853039  4.233767
  S     6.107984  5.891362  2.979226
  S     5.793318  9.331727  2.748109
  S     8.877600  6.379514 -0.055934
  S     9.042913  9.970732  0.369194
  S     8.476253  6.882966  4.055338
  S     7.809884 10.555986  4.290110
