16  
    
  C    11.009916  7.688980  3.129613
  C    11.106573 11.770585  2.760913
  C     9.740658  7.407808  2.538267
  C     9.940916 11.150409  2.244264
  N    12.016210  7.881682  2.256729
  N    12.125652 11.937057  1.921571
  N     9.728523  7.391658  1.181088
  N    10.047936 10.923212  0.930143
  N     9.219511  7.689370  5.018639
  N     9.421190 11.585452  4.774591
  S     8.414412  7.143119  3.654602
  S     8.627878 10.946497  3.406533
  S    11.297096  7.742158  0.775216
  S    11.573855 11.357935  0.411684
  S    10.900295  7.709176  4.845015
  S    11.035468 12.043922  4.427650
