16  
    
  C     4.427923  5.059188  1.779162
  C     4.176527  8.663053  1.579594
  C     3.218611  4.776761  1.029716
  C     3.099434  8.083100  0.824950
  N     5.495697  5.187427  0.984965
  N     5.255938  9.007852  0.860941
  N     3.428166  4.400222 -0.258131
  N     3.241602  8.212847 -0.501881
  N     2.712023  4.880980  3.635331
  N     2.282250  8.170515  3.301314
  S     1.855359  4.811698  2.222152
  S     1.707719  7.781385  1.855634
  S     5.043808  4.790530 -0.576900
  S     4.775234  8.807714 -0.771933
  S     4.348809  5.332370  3.448481
  S     3.888431  8.639637  3.317916
