16  
    
  C    10.816086  8.416431  3.280752
  C    10.726132 11.884187  3.191050
  C     9.647693  7.754285  2.688113
  C     9.484843 11.525624  2.578984
  N    11.761492  8.672433  2.411266
  N    11.797002 12.032109  2.420826
  N     9.717115  7.502235  1.404966
  N     9.598598 11.242612  1.287914
  N     9.048874  8.171085  5.081762
  N     8.919798 11.621281  5.117746
  S     8.344898  7.495847  3.761850
  S     8.229311 11.047048  3.723233
  S    11.249924  7.948737  0.947879
  S    11.258951 11.631856  0.901179
  S    10.542010  8.717179  4.970220
  S    10.528274 12.069825  4.912669
