16  
    
  C    11.344478  8.064045  3.343926
  C    11.359698 11.888090  3.271094
  C    10.088482  7.753958  2.638009
  C    10.042916 11.685397  2.750946
  N    12.395554  8.116645  2.557564
  N    12.292880 11.781732  2.347783
  N    10.211613  7.658370  1.311257
  N     9.994407 11.266818  1.478465
  N     9.416602  8.396312  5.111705
  N     9.830028 12.225053  5.273093
  S     8.753640  7.702908  3.751738
  S     8.856514 11.757655  4.025723
  S    11.835834  7.804900  1.017712
  S    11.583271 11.453721  0.942730
  S    11.111096  8.513070  4.999839
  S    11.437551 12.186868  5.027171
