16  
    
  C     9.247763  6.781371  2.361849
  C     9.172087 10.828766  2.953654
  C     8.055781  6.251776  1.776956
  C     7.934361 10.423702  2.358077
  N    10.346326  6.734904  1.602806
  N    10.261431 10.731751  2.158685
  N     8.234629  5.748599  0.557474
  N     8.061488 10.062089  1.093673
  N     7.399190  6.891341  4.174514
  N     7.371953 10.954256  4.814608
  S     6.678800  6.351478  2.805286
  S     6.566166 10.640861  3.388629
  S     9.795408  6.011608  0.201808
  S     9.624286 10.135492  0.716832
  S     9.018317  7.231100  4.046799
  S     9.045999 11.093390  4.664875
