16  
    
  C    12.089757  8.507261  3.632870
  C    12.007938 12.161999  3.276561
  C    10.911051  8.126565  2.924518
  C    10.793353 11.688838  2.687725
  N    13.159069  8.728388  2.871509
  N    12.938739 12.385677  2.372592
  N    11.041333  7.976495  1.598933
  N    10.802913 11.440614  1.382043
  N    10.177783  8.342292  5.405284
  N    10.210573 11.988991  5.259290
  S     9.477204  7.911157  3.874877
  S     9.520285 11.553203  3.783723
  S    12.598700  8.401940  1.275707
  S    12.324564 11.826452  0.924622
  S    11.788996  8.800336  5.321531
  S    11.911415 12.227126  5.056932
