16  
    
  C    10.975758  7.651091  3.161512
  C    11.206524 11.772878  2.825882
  C     9.748947  7.494016  2.459193
  C    10.028118 11.158310  2.255599
  N    12.006956  7.804365  2.332510
  N    12.211256 11.926101  1.971497
  N     9.864142  7.559887  1.112956
  N    10.135573 10.825408  0.954999
  N     9.178022  7.665006  4.926248
  N     9.518175 11.792852  4.670430
  S     8.381913  7.221489  3.503518
  S     8.834954 10.902670  3.461728
  S    11.474868  7.665457  0.798411
  S    11.616421 11.385286  0.522540
  S    10.792441  7.643300  4.895407
  S    11.147587 12.134073  4.570923
