16  
    
  C    10.403200  7.233415  2.774902
  C    10.254269 11.057020  2.764097
  C     9.141140  7.302438  2.130176
  C     9.010017 10.795032  2.169652
  N    11.466871  7.060289  1.971335
  N    11.318332 11.160439  1.937944
  N     9.225932  7.340608  0.784950
  N     9.116644 10.703528  0.830193
  N     8.596717  7.460984  4.648941
  N     8.530855 10.911996  4.700272
  S     7.793378  7.174610  3.179789
  S     7.637592 10.751591  3.252654
  S    10.806686  7.165833  0.426328
  S    10.704266 10.934838  0.440754
  S    10.287742  7.306221  4.558533
  S    10.169503 11.038878  4.543460
