16  
    
  C    12.043541  8.598271  3.547403
  C    11.965383 12.292494  3.233867
  C    10.871512  8.079984  2.937756
  C    10.662369 11.863669  2.692535
  N    13.065326  8.804610  2.717439
  N    12.944013 12.282365  2.345880
  N    10.979220  7.956038  1.606576
  N    10.677088 11.522403  1.423814
  N    10.222387  8.327430  5.376487
  N    10.284483 11.912450  5.141838
  S     9.502637  7.900141  3.999806
  S     9.335838 11.542508  3.828919
  S    12.555114  8.324445  1.232933
  S    12.255662 11.843912  0.878028
  S    11.786467  8.819341  5.271046
  S    11.859370 12.200804  4.967791
