16  
    
  C    11.023677  8.168516  2.966383
  C    10.906173 11.553623  2.895462
  C     9.857712  7.385815  2.552223
  C     9.637683 11.213149  2.267749
  N    11.883388  8.537194  2.002040
  N    11.876152 11.794704  2.008126
  N     9.810560  7.166474  1.235322
  N     9.684546 11.056474  0.949255
  N     9.555510  7.840260  5.032243
  N     9.167731 11.482626  4.701265
  S     8.734574  7.058245  3.855568
  S     8.358071 10.848002  3.361979
  S    11.225568  7.798972  0.607362
  S    11.232979 11.587676  0.478538
  S    10.981235  8.597117  4.628863
  S    10.770559 11.670213  4.589805
