16  
    
  C    10.344685  7.625199  2.623929
  C    10.511964 11.354182  2.824562
  C     9.054837  7.319543  1.987838
  C     9.277624 11.350492  2.018285
  N    11.304136  7.606631  1.727940
  N    11.600824 11.254381  2.043802
  N     9.097434  7.139263  0.667865
  N     9.451964 11.123492  0.685902
  N     8.627123  7.743437  4.532151
  N     8.565225 11.281490  4.495389
  S     7.782401  7.196648  3.195131
  S     7.834193 11.445888  3.037909
  S    10.684050  7.218055  0.268017
  S    11.122309 11.107674  0.505433
  S    10.265255  7.960759  4.339843
  S    10.245011 11.639856  4.501181
