16  
    
  C     6.431740  5.780015  2.056935
  C     6.103096  9.221917  1.785803
  C     5.182178  5.368614  1.384330
  C     4.853162  8.836377  1.154121
  N     7.450955  5.882643  1.217023
  N     7.118760  9.279746  0.929563
  N     5.327859  5.146056  0.077002
  N     4.971934  8.613056 -0.143365
  N     4.662114  5.654125  3.885636
  N     4.355128  8.846316  3.634546
  S     3.836912  5.212193  2.533155
  S     3.557868  8.562800  2.177018
  S     6.915088  5.453640 -0.281472
  S     6.555981  8.939861 -0.543298
  S     6.284292  6.151519  3.730916
  S     5.942298  9.389888  3.530697
