16  
    
  C     9.397800  7.008254  2.925614
  C     9.652373 10.786869  2.604829
  C     8.181872  6.579096  2.259668
  C     8.426161 10.259578  1.984001
  N    10.421100  7.331789  2.080333
  N    10.624022 11.178879  1.762629
  N     8.298992  6.495732  0.933783
  N     8.544107 10.237720  0.648564
  N     7.536973  6.534021  4.773775
  N     7.955529 10.317542  4.547328
  S     6.969792  5.965976  3.300762
  S     7.193209  9.821273  3.130339
  S     9.776602  7.060352  0.540426
  S    10.018456 10.903397  0.225914
  S     9.182168  6.903054  4.723272
  S     9.516996 10.871308  4.331664
