16  
    
  C    12.108623  8.902300  3.513164
  C    11.895162 12.422151  3.337654
  C    10.967541  8.527840  2.752877
  C    10.619665 12.041857  2.833696
  N    13.187300  9.037314  2.778857
  N    12.885621 12.552051  2.436330
  N    11.182283  8.350734  1.442316
  N    10.588620 12.082146  1.496730
  N    10.209788  8.567966  5.245156
  N    10.235688 12.038565  5.360289
  S     9.520355  8.337075  3.702582
  S     9.310567 11.874363  3.925708
  S    12.735524  8.799043  1.157370
  S    12.172945 12.214885  0.990632
  S    11.793259  8.982679  5.264408
  S    11.962609 12.360124  5.102479
