16  
    
  C    10.881240  8.097848  3.174812
  C    10.630013 11.987416  3.190013
  C     9.641107  7.656683  2.568695
  C     9.410132 11.322595  2.689351
  N    11.859606  8.177280  2.286348
  N    11.410821 12.392028  2.210385
  N     9.702976  7.404441  1.258438
  N     9.464488 11.022364  1.408266
  N     9.190650  7.677537  5.077842
  N     9.115654 11.744821  5.265947
  S     8.403274  7.186917  3.775904
  S     8.310766 10.945793  3.982159
  S    11.188522  7.817026  0.766584
  S    10.910274 11.710046  0.802237
  S    10.786694  8.084837  4.975369
  S    10.721135 12.084407  4.937683
