16  
    
  C     5.364555  5.342329  1.769331
  C     5.137407  8.892293  1.717324
  C     4.144348  5.157562  1.032095
  C     3.941120  8.446077  1.087691
  N     6.449738  5.534630  1.000441
  N     6.154955  9.202943  0.897516
  N     4.354453  5.059586 -0.273167
  N     3.965050  8.452096 -0.243357
  N     3.557045  5.371291  3.521642
  N     3.363894  8.534305  3.607119
  S     2.704828  5.224648  2.105624
  S     2.561496  8.340329  2.193837
  S     5.987239  5.268513 -0.548860
  S     5.511796  8.954960 -0.638651
  S     5.130929  5.642354  3.441611
  S     5.009498  8.886301  3.471509
