16  
    
  C     7.525131  6.073585  2.157542
  C     7.890745  9.860350  2.260567
  C     6.354787  5.530599  1.546198
  C     6.687319  9.325145  1.714658
  N     8.469223  6.456784  1.312907
  N     8.839444 10.164503  1.379678
  N     6.481968  5.419736  0.216630
  N     6.666235  9.312116  0.397669
  N     5.879866  5.746347  4.130734
  N     6.299516  9.667128  4.265905
  S     5.089245  5.257245  2.750989
  S     5.465230  9.057628  2.981417
  S     7.944578  6.032391 -0.194250
  S     8.268504  9.824664 -0.104653
  S     7.437098  6.222531  3.899745
  S     7.843712 10.157064  4.005218
