16  
    
  C     8.891780  6.976108  2.234656
  C     8.998963 10.547249  2.450905
  C     7.682417  6.476326  1.572618
  C     7.767137 10.057306  1.820729
  N     9.908731  7.186633  1.429248
  N     9.997891 10.685828  1.586066
  N     7.891194  6.362392  0.264920
  N     7.880517  9.832069  0.515652
  N     7.169933  6.715213  4.101893
  N     7.310534 10.345219  4.304012
  S     6.362567  6.285301  2.737587
  S     6.426620 10.090547  2.898186
  S     9.459565  6.778464 -0.072635
  S     9.478206 10.206956  0.096076
  S     8.774839  7.230443  3.898020
  S     8.907190 10.752317  4.121363
