16  
    
  C    12.259020  9.073811  3.764224
  C    12.590752 12.601613  3.523717
  C    11.158398  8.425815  3.159471
  C    11.324805 12.454317  2.900678
  N    13.305915  9.248802  2.995729
  N    13.630946 12.887205  2.744292
  N    11.336286  8.247545  1.862536
  N    11.403691 12.483532  1.570840
  N    10.630922  8.729994  5.607241
  N    10.878432 12.324555  5.473127
  S     9.889638  8.032438  4.328683
  S    10.031131 12.281848  4.059690
  S    12.832408  8.791128  1.498432
  S    13.058815 12.727761  1.187709
  S    12.158405  9.221295  5.439661
  S    12.428181 12.979041  5.267316
