16  
    
  C    10.373509  7.194861  2.775135
  C    10.279835 11.015636  2.800794
  C     9.103378  7.227077  2.087356
  C     8.998226 10.823500  2.146991
  N    11.454167  7.106529  1.989684
  N    11.299084 11.159667  1.974126
  N     9.166251  7.290184  0.745853
  N     9.134876 10.686460  0.840502
  N     8.582440  7.456161  4.648447
  N     8.514285 10.867386  4.691734
  S     7.774184  7.145837  3.179430
  S     7.655298 10.791941  3.243451
  S    10.802842  7.174664  0.424703
  S    10.709082 10.945581  0.430303
  S    10.279140  7.330019  4.524415
  S    10.182489 11.021869  4.524130
