16  
    
  C     9.264990  6.677191  2.543481
  C     9.653660 10.675930  2.790765
  C     8.063576  6.243487  1.848842
  C     8.372469 10.184139  2.231636
  N    10.293815  6.922549  1.723967
  N    10.606315 10.903808  1.888362
  N     8.153857  6.300048  0.504988
  N     8.432446 10.062741  0.881509
  N     7.397170  6.430731  4.303450
  N     8.044237 10.425181  4.740081
  S     6.685960  6.000031  2.852854
  S     7.179490  9.906379  3.431594
  S     9.693263  6.713958  0.168382
  S     9.957624 10.484172  0.430351
  S     9.000447  6.805485  4.305257
  S     9.615173 10.939441  4.515209
