16  
    
  C     5.684609  5.210753  1.939986
  C     5.721056  9.079870  2.000799
  C     4.553823  4.477300  1.351069
  C     4.504644  8.503292  1.409213
  N     6.687494  5.420082  1.095407
  N     6.647087  9.455142  1.103310
  N     4.698579  4.279447  0.047783
  N     4.597035  8.337219  0.089061
  N     3.942451  4.922365  3.856354
  N     3.971356  8.760775  3.977069
  S     3.242292  4.202413  2.448776
  S     3.298120  8.090473  2.625094
  S     6.170801  4.913002 -0.380504
  S     5.981176  9.012189 -0.368285
  S     5.499473  5.572307  3.645588
  S     5.597050  9.247865  3.704074
