16  
    
  C    12.034899  8.831984  3.439305
  C    11.805839 12.243198  3.285475
  C    10.849394  8.520223  2.719909
  C    10.500959 12.021777  2.722969
  N    13.114410  9.026259  2.719389
  N    12.788264 12.475207  2.424808
  N    11.017056  8.475035  1.386028
  N    10.555654 11.754490  1.394343
  N    10.212670  8.543246  5.213647
  N    10.333819 12.086851  5.296056
  S     9.438367  8.299811  3.789646
  S     9.331197 11.892659  4.020103
  S    12.683967  8.690822  1.190073
  S    12.119312 12.267555  0.933003
  S    11.837562  8.843772  5.140584
  S    11.907923 12.222139  5.006046
