16  
    
  C     6.696402  5.666995  2.015226
  C     6.645769  9.533382  2.086329
  C     5.395105  5.510520  1.376454
  C     5.381093  9.073690  1.546305
  N     7.647030  5.841863  1.119708
  N     7.611728  9.640207  1.169086
  N     5.458266  5.371137  0.058325
  N     5.382521  8.960586  0.210772
  N     4.949128  5.795470  3.908642
  N     5.097102  9.329930  4.205845
  S     4.143158  5.392423  2.554209
  S     4.180725  9.071179  2.791774
  S     7.038428  5.599395 -0.399392
  S     6.949627  9.387781 -0.279798
  S     6.636300  5.949338  3.712460
  S     6.632138  9.818186  3.760626
