16  
    
  C     5.424407  5.445876  1.649013
  C     5.254846  8.996362  1.525633
  C     4.097705  5.194827  1.075649
  C     4.113633  8.376580  0.884441
  N     6.360555  5.722506  0.732172
  N     6.333603  9.021749  0.738864
  N     4.117846  5.020580 -0.274483
  N     4.303209  8.168472 -0.419691
  N     3.801002  5.439161  3.626693
  N     3.399472  8.791015  3.303541
  S     2.908454  4.983620  2.288646
  S     2.722022  8.289489  1.895061
  S     5.652527  5.334848 -0.755462
  S     5.829933  8.546317 -0.759650
  S     5.366866  5.692511  3.391277
  S     4.971905  9.359060  3.195960
