16  
    
  C    10.856514  8.011988  3.122678
  C    10.571585 11.964961  3.159384
  C     9.561605  7.597358  2.565297
  C     9.401531 11.308102  2.709335
  N    11.852522  8.127960  2.219109
  N    11.406252 12.368228  2.199643
  N     9.628374  7.409273  1.256845
  N     9.470290 11.061161  1.394914
  N     9.187874  7.661510  5.094917
  N     9.153421 11.714361  5.240337
  S     8.365035  7.135689  3.766176
  S     8.308623 10.927935  3.997345
  S    11.153004  7.812889  0.741773
  S    10.862393 11.661571  0.793341
  S    10.777244  7.984044  4.920896
  S    10.722591 12.121434  4.915330
