16  
    
  C    12.363089  9.015176  3.782639
  C    12.627982 12.698525  3.586419
  C    11.170565  8.433371  3.141198
  C    11.332321 12.463786  2.902570
  N    13.350544  9.358145  2.949041
  N    13.624004 12.838730  2.715967
  N    11.282762  8.242445  1.823978
  N    11.409418 12.465913  1.571689
  N    10.607494  8.637629  5.616080
  N    10.878088 12.435445  5.431542
  S     9.914395  7.999075  4.248091
  S     9.982835 12.253946  4.062141
  S    12.829513  8.865216  1.446591
  S    13.017742 12.744331  1.186325
  S    12.114372  9.250613  5.488196
  S    12.470411 12.968294  5.297343
