16  
    
  C     8.288457  6.597894  2.429203
  C     8.425459 10.174216  2.311196
  C     7.044006  6.300899  1.740804
  C     7.117478  9.826643  1.775507
  N     9.349311  6.839681  1.670420
  N     9.479486 10.227839  1.490902
  N     7.225299  6.117114  0.433570
  N     7.169548  9.596858  0.462908
  N     6.610472  6.253605  4.345104
  N     6.844721 10.159038  4.320136
  S     5.788669  5.902330  2.904137
  S     5.913762  9.703014  3.011295
  S     8.783331  6.487439  0.107760
  S     8.742181  9.888391 -0.012691
  S     8.192987  6.755746  4.108982
  S     8.456628 10.531813  3.974590
