16  
    
  C     7.805594  6.670026  2.400660
  C     7.988429 10.340677  2.038626
  C     6.687160  6.106628  1.720873
  C     6.735152  9.878099  1.561186
  N     8.927756  6.684761  1.690146
  N     8.871582 10.470481  1.033128
  N     6.881087  5.914889  0.424346
  N     6.619734  9.609447  0.271067
  N     5.904133  6.315896  4.136691
  N     6.294356 10.376258  4.030045
  S     5.187553  5.968592  2.587634
  S     5.424893  9.873387  2.704416
  S     8.504264  6.179930  0.152567
  S     8.205413  9.920259 -0.334307
  S     7.464217  6.813606  4.128554
  S     7.915957 10.613253  3.781041
