16  
    
  C     4.894632  4.927525  1.810414
  C     4.692672  8.849118  1.739059
  C     3.631964  4.551647  1.271550
  C     3.373335  8.540858  1.182317
  N     5.868235  4.916494  0.880385
  N     5.558428  9.272812  0.822548
  N     3.547342  4.486088 -0.052621
  N     3.354389  8.489047 -0.148233
  N     3.206278  4.503688  3.761364
  N     3.168035  8.451551  3.769432
  S     2.361772  4.447000  2.340912
  S     2.192238  8.160205  2.382560
  S     5.099479  4.726587 -0.563999
  S     4.895116  8.968604 -0.625068
  S     4.808565  4.907342  3.590155
  S     4.795525  8.847906  3.458907
