16  
    
  C     3.634927  4.932902  1.558272
  C     3.922715  8.232282  1.691296
  C     2.418873  4.373227  0.981720
  C     2.620999  7.967248  1.095938
  N     4.633495  5.037466  0.683188
  N     4.922966  8.393114  0.814626
  N     2.541925  4.153502 -0.317042
  N     2.652929  7.826807 -0.214755
  N     1.910657  4.324921  3.470482
  N     2.165648  8.170965  3.645778
  S     1.144949  3.911533  2.019036
  S     1.292167  7.862358  2.259681
  S     4.028432  4.609252 -0.855432
  S     4.211773  8.105455 -0.718342
  S     3.480644  4.755375  3.363431
  S     3.740435  8.536954  3.428325
