16  
    
  C    11.366932  8.509782  3.364748
  C    11.373346 12.414510  3.309524
  C    10.253418  7.868307  2.736536
  C    10.239687 11.762576  2.708718
  N    12.423290  8.651349  2.576231
  N    12.405970 12.529389  2.469778
  N    10.376309  7.582068  1.455003
  N    10.477236 11.291546  1.482694
  N     9.516551  8.543851  5.166602
  N     9.597451 12.475441  5.166628
  S     8.863147  7.743248  3.854247
  S     8.943729 11.630098  3.807163
  S    11.916584  8.051592  1.098710
  S    11.982336 11.836766  1.059352
  S    11.050265  9.072466  4.998478
  S    11.298524 12.743489  5.023557
