16  
    
  C     9.205016  6.930701  2.751273
  C     9.655119 10.902767  2.653809
  C     8.047544  6.381182  2.114004
  C     8.578655 10.191685  2.093470
  N    10.241932  7.200777  1.934099
  N    10.624208 11.296438  1.820774
  N     8.145927  6.333912  0.802130
  N     8.657459 10.075350  0.767766
  N     7.476970  6.347394  4.598599
  N     8.141387 10.080061  4.616667
  S     6.736659  6.083134  3.178433
  S     7.373114  9.611873  3.223723
  S     9.686039  6.965801  0.387400
  S    10.094928 10.861622  0.295488
  S     9.008319  6.976710  4.501829
  S     9.529118 10.919047  4.438514
