16  
    
  C     7.809765  6.364802  2.170316
  C     8.081592 10.504957  2.190163
  C     6.587230  5.927998  1.494246
  C     6.890946  9.915342  1.592050
  N     8.844270  6.647688  1.378697
  N     9.054214 10.740063  1.326527
  N     6.746305  5.862930  0.174100
  N     6.996664  9.786080  0.248753
  N     6.145128  5.935741  3.991643
  N     6.428932 10.228506  4.103225
  S     5.303214  5.524435  2.617616
  S     5.604920  9.650022  2.755900
  S     8.366857  6.278220 -0.148855
  S     8.625374 10.241198 -0.137539
  S     7.758042  6.387458  3.853324
  S     7.890152 10.940342  3.818494
