16  
    
  C    11.102619  8.159373  2.953076
  C    10.839587 11.913177  3.069316
  C     9.883262  7.678092  2.335758
  C     9.683173 11.294303  2.413651
  N    12.074675  8.423728  2.103379
  N    11.852093 12.103627  2.251943
  N     9.930937  7.588223  1.011249
  N     9.872901 11.081401  1.127223
  N     9.361156  7.804112  4.844445
  N     9.002315 11.590849  4.906802
  S     8.499089  7.517080  3.444008
  S     8.299175 11.092746  3.463998
  S    11.450744  7.961993  0.579665
  S    11.344922 11.721250  0.692879
  S    10.818447  8.515891  4.658302
  S    10.597521 12.153281  4.740284
