16  
    
  C    10.903918  8.128780  3.227736
  C    10.659374 12.025957  3.193389
  C     9.692538  7.590769  2.646585
  C     9.508569 11.235833  2.723343
  N    11.856505  8.366812  2.365858
  N    11.575804 12.348137  2.290850
  N     9.739001  7.437812  1.343896
  N     9.568830 11.038761  1.420723
  N     9.204613  7.715800  5.218784
  N     9.094162 11.649710  5.237796
  S     8.436121  7.323909  3.720872
  S     8.304520 11.019557  3.951575
  S    11.302613  7.852494  0.886017
  S    10.909223 11.773317  0.844827
  S    10.770243  8.308516  4.956976
  S    10.656526 12.066309  4.945377
