16  
    
  C    12.000678  8.626609  3.407785
  C    11.828085 12.068405  3.199987
  C    10.757353  8.051997  2.906007
  C    10.540031 11.726025  2.634944
  N    12.882236  8.840625  2.439574
  N    12.808612 12.194596  2.301662
  N    10.721439  7.775327  1.587362
  N    10.567788 11.599612  1.319976
  N    10.285142  8.510577  5.443841
  N     9.971723 11.932518  5.149544
  S     9.510226  7.928373  4.098983
  S     9.160429 11.496525  3.667783
  S    12.206836  8.278239  1.030206
  S    11.991853 12.036516  0.791555
  S    11.881275  9.014913  5.106318
  S    11.602524 12.360911  4.896976
