16  
    
  C     9.388789  7.015395  2.912013
  C     9.647907 10.821181  2.610232
  C     8.169476  6.557330  2.246297
  C     8.439923 10.212218  1.986036
  N    10.402265  7.311934  2.077124
  N    10.618681 11.185375  1.792745
  N     8.274743  6.520756  0.916746
  N     8.583156 10.242771  0.652782
  N     7.543624  6.555700  4.761903
  N     7.965838 10.299721  4.517562
  S     6.938538  5.956496  3.305800
  S     7.220247  9.793517  3.131405
  S     9.761563  7.038636  0.540669
  S    10.014135 10.898723  0.236487
  S     9.163107  6.907052  4.688542
  S     9.525901 10.871888  4.334558
