16  
    
  C     6.605537  5.955158  2.109519
  C     6.438126  9.381952  1.918535
  C     5.440990  5.358440  1.461522
  C     5.241766  8.924161  1.214743
  N     7.661763  6.017241  1.290155
  N     7.485010  9.582820  1.113149
  N     5.549680  5.223346  0.129219
  N     5.482030  8.706987 -0.071757
  N     4.841723  5.532449  3.978130
  N     4.622526  9.021253  3.651496
  S     4.051659  5.132210  2.528717
  S     3.946340  8.480987  2.285690
  S     7.098120  5.606617 -0.237742
  S     7.058891  9.223065 -0.406965
  S     6.407996  6.082387  3.836021
  S     6.221081  9.467478  3.661837
