16  
    
  C    12.801890  9.246597  3.388078
  C    12.649812 12.999353  3.604018
  C    11.661844  8.595874  2.799560
  C    11.490564 12.478407  2.944901
  N    13.806783  9.490642  2.531339
  N    13.737462 13.160640  2.846365
  N    11.757540  8.446422  1.492187
  N    11.769526 12.105296  1.713828
  N    10.894245  9.265681  5.244579
  N    10.863872 12.615490  5.411053
  S    10.207185  8.655970  3.860039
  S    10.169436 12.145590  3.936260
  S    13.294335  8.946287  1.075193
  S    13.270913 12.611497  1.306425
  S    12.563543  9.483016  5.155894
  S    12.440844 13.219245  5.332273
