16  
    
  C    11.342157  8.527696  3.359769
  C    11.385643 12.357216  3.313228
  C    10.144522  7.913045  2.758728
  C    10.244048 11.659053  2.783031
  N    12.416119  8.619261  2.584312
  N    12.410913 12.508092  2.473771
  N    10.405160  7.511650  1.527922
  N    10.325653 11.330094  1.490909
  N     9.513062  8.438570  5.139943
  N     9.731178 12.440299  5.169934
  S     8.779350  7.773485  3.804263
  S     8.920510 11.728596  3.958032
  S    11.973029  8.005640  1.110399
  S    11.919490 11.695316  1.061274
  S    11.110779  8.971601  4.995627
  S    11.294175 12.752408  4.955086
