16  
    
  C     9.223731  6.697985  2.366516
  C     9.520375 10.499390  2.799999
  C     8.026220  6.343608  1.667539
  C     8.242201 10.264917  2.181036
  N    10.318533  6.964559  1.644690
  N    10.561246 10.553014  1.950892
  N     8.272921  6.187428  0.369782
  N     8.347773  9.990149  0.889650
  N     7.441314  6.456558  4.225493
  N     7.810043 10.672510  4.722963
  S     6.655082  6.085272  2.812977
  S     6.938223 10.396644  3.331259
  S     9.909019  6.528954  0.078909
  S     9.924004 10.155018  0.433765
  S     9.100096  6.735812  4.114934
  S     9.450290 10.926701  4.515699
