16  
    
  C     8.551413  6.675150  2.314195
  C     8.176235 10.376683  2.624212
  C     7.318419  6.194314  1.784676
  C     7.134513  9.761235  1.877876
  N     9.498729  6.770775  1.403561
  N     9.317462 10.475464  1.911686
  N     7.320845  5.893675  0.513190
  N     7.474224  9.417976  0.652414
  N     6.819953  6.419307  4.272303
  N     6.284636  9.764725  4.271139
  S     6.001795  5.946236  2.867378
  S     5.782224  9.194947  2.789794
  S     8.852025  6.328182 -0.052565
  S     9.048065  9.892712  0.411119
  S     8.437916  7.028551  4.066960
  S     7.752807 10.541236  4.330668
