16  
    
  C    11.407798  8.670333  3.338475
  C    11.509060 12.353658  3.346788
  C    10.213738  7.970992  2.772471
  C    10.419424 11.683722  2.698564
  N    12.455295  8.783184  2.498192
  N    12.505554 12.616242  2.533292
  N    10.368831  7.635978  1.483807
  N    10.532530 11.558385  1.387410
  N     9.622951  8.517737  5.166133
  N     9.581422 11.989980  5.113741
  S     8.914988  7.678059  3.895380
  S     8.957118 11.551177  3.647663
  S    11.876174  8.155537  1.041515
  S    12.056332 12.016392  0.971259
  S    11.098799  9.198061  4.965475
  S    11.085571 12.680178  4.997379
