16  
    
  C    12.268136  9.243128  3.533059
  C    12.443792 12.708433  3.464564
  C    11.236009  8.585025  2.781870
  C    11.192410 12.291500  2.940651
  N    13.246573  9.736491  2.768845
  N    13.421586 12.915065  2.605300
  N    11.423455  8.411710  1.458312
  N    11.258909 11.996019  1.648268
  N    10.618502  8.364675  5.250652
  N    10.937773 12.555840  5.490412
  S     9.973264  7.925265  3.859421
  S     9.975536 12.180792  4.163364
  S    12.969945  9.206652  1.217767
  S    12.726153 12.533069  1.147618
  S    12.052076  9.183016  5.301647
  S    12.470144 13.015226  5.159942
