16  
    
  C     5.213923  5.370351  1.820363
  C     5.086034  8.862285  1.297345
  C     3.886267  5.075895  1.291735
  C     3.864803  8.296757  0.826029
  N     6.174293  5.343913  0.898613
  N     6.096083  8.896465  0.426810
  N     3.919813  4.536346  0.056815
  N     3.873643  8.084851 -0.490726
  N     3.568174  5.513279  3.748680
  N     3.486877  8.906972  3.269651
  S     2.615572  5.282349  2.485602
  S     2.580432  8.330731  2.009696
  S     5.427431  4.863343 -0.501179
  S     5.379840  8.446444 -1.008087
  S     5.158936  5.919458  3.465668
  S     5.110845  9.165821  3.014197
