16  
    
  C     7.724050  6.546482  2.417821
  C     7.801366 10.163173  2.189377
  C     6.439212  6.156100  1.873334
  C     6.550511  9.914954  1.490505
  N     8.715312  6.619875  1.519480
  N     8.895089 10.074852  1.397885
  N     6.467551  5.758334  0.595839
  N     6.693067  9.609023  0.213307
  N     5.926114  6.851206  4.255510
  N     5.894183  9.965403  3.926581
  S     5.089173  6.159425  2.952099
  S     5.162864  9.938507  2.467433
  S     8.041650  6.116916  0.051081
  S     8.254331  9.747714 -0.172391
  S     7.558940  7.074835  4.144276
  S     7.543624 10.263737  3.959750
