16  
    
  C     9.203306  6.856734  2.358720
  C     9.112312 10.914061  2.988170
  C     8.029441  6.277329  1.809183
  C     7.951472 10.335011  2.439307
  N    10.266060  6.814082  1.538197
  N    10.104700 11.085165  2.131397
  N     8.079360  5.951703  0.517180
  N     7.995508 10.132903  1.099622
  N     7.376575  7.036297  4.194997
  N     7.351037 10.868288  4.891309
  S     6.696483  6.307498  2.883537
  S     6.567136 10.475194  3.495941
  S     9.692541  6.170980  0.072303
  S     9.537384 10.552299  0.616559
  S     9.002403  7.268129  4.084387
  S     8.963313 11.316275  4.695652
