16  
    
  C    11.349440  8.527481  3.363754
  C    11.372430 12.373382  3.309985
  C    10.143784  7.909277  2.766270
  C    10.243628 11.657356  2.777335
  N    12.426512  8.624525  2.585947
  N    12.403914 12.517424  2.491426
  N    10.394475  7.512558  1.517476
  N    10.338462 11.330896  1.489741
  N     9.511583  8.447541  5.130181
  N     9.719029 12.452927  5.159275
  S     8.786621  7.770190  3.814022
  S     8.927600 11.718367  3.941209
  S    11.970227  8.013400  1.108265
  S    11.930011 11.708592  1.059036
  S    11.105222  8.984324  4.994422
  S    11.296420 12.750326  4.962055
