16  
    
  C     8.912677  7.162576  2.687988
  C     8.942066 11.073656  2.332063
  C     7.765998  6.420234  2.243241
  C     7.778514 10.519435  1.681355
  N     9.863984  7.346416  1.761036
  N     9.944394 11.384394  1.528820
  N     7.708503  6.120473  0.946796
  N     7.831214 10.562330  0.341059
  N     7.291784  6.854118  4.751310
  N     7.114209 10.641361  4.176160
  S     6.472077  6.298333  3.446657
  S     6.507678 10.024901  2.751492
  S     9.125207  6.761778  0.294405
  S     9.256863 11.166754 -0.035167
  S     8.727660  7.660960  4.403274
  S     8.714134 11.159069  4.072266
