16  
    
  C     3.591422  4.592964  1.601531
  C     3.792488  8.325544  1.606057
  C     2.487194  3.824305  1.027204
  C     2.495196  8.093682  0.904943
  N     4.557592  4.825006  0.698023
  N     4.791647  8.643816  0.776503
  N     2.495525  3.814689 -0.288749
  N     2.630053  7.983320 -0.430358
  N     1.947635  4.035263  3.506175
  N     2.015956  7.982878  3.453249
  S     1.229654  3.458776  2.143219
  S     1.251394  7.762242  1.993300
  S     3.913278  4.491263 -0.820079
  S     4.193038  8.393801 -0.777126
  S     3.420921  4.724057  3.333312
  S     3.605577  8.436766  3.349972
