16  
    
  C    11.309114  8.526688  3.342797
  C    11.457325 12.278397  3.292080
  C    10.188127  7.927544  2.732231
  C    10.214536 11.695645  2.803370
  N    12.376864  8.607572  2.580955
  N    12.426095 12.437322  2.392574
  N    10.442591  7.506000  1.518008
  N    10.301288 11.316077  1.519264
  N     9.521516  8.407890  5.188967
  N     9.751883 12.374256  5.257033
  S     8.761090  7.789593  3.766822
  S     8.893284 11.760933  4.003771
  S    11.970904  7.967127  1.123581
  S    11.871178 11.654405  1.065464
  S    11.122080  8.917551  5.008540
  S    11.299824 12.769420  4.938827
