16  
    
  C    12.044297  8.525259  3.614880
  C    12.099167 11.963418  3.365878
  C    10.873489  8.125704  2.829810
  C    10.873389 11.558426  2.692575
  N    13.175121  8.745406  2.947124
  N    13.117399 12.248569  2.535134
  N    11.119792  8.080562  1.516414
  N    11.086673 11.333974  1.387813
  N    10.143095  8.356293  5.391773
  N    10.325706 11.973649  5.150151
  S     9.450816  7.982629  3.878186
  S     9.475331 11.432740  3.868377
  S    12.753114  8.438021  1.348156
  S    12.538042 11.950991  1.002225
  S    11.751870  8.731559  5.283771
  S    11.931327 12.406270  4.977411
