16  
    
  C    10.525279  7.350329  2.735921
  C    10.371060 11.317823  2.690266
  C     9.180151  7.353282  2.116493
  C     9.111200 11.038988  2.022576
  N    11.495578  7.327188  1.811639
  N    11.393767 11.316091  1.859131
  N     9.119858  7.303514  0.765628
  N     9.250329 10.721721  0.739548
  N     8.856382  7.680552  4.592726
  N     8.606421 11.266578  4.512838
  S     7.903899  7.537847  3.243230
  S     7.742515 11.155925  3.089484
  S    10.711970  7.194057  0.304525
  S    10.814145 10.921932  0.313996
  S    10.478972  7.547309  4.486262
  S    10.230115 11.472301  4.400425
