16  
    
  C     3.586415  4.818107  1.542513
  C     3.895838  8.286398  1.710590
  C     2.364148  4.379590  0.863314
  C     2.601895  7.939971  1.097765
  N     4.598198  5.080944  0.749612
  N     4.869062  8.280844  0.808522
  N     2.475515  4.241349 -0.462748
  N     2.639078  7.776355 -0.203152
  N     1.944803  4.293490  3.434018
  N     2.118336  8.235206  3.630186
  S     1.106003  4.099427  2.042045
  S     1.314665  7.866181  2.247668
  S     4.113062  4.627380 -0.737958
  S     4.217204  8.028729 -0.666974
  S     3.547362  4.822541  3.248992
  S     3.757986  8.638757  3.394005
