16  
    
  C    12.434311  8.959817  3.765424
  C    12.509133 12.861965  3.455913
  C    11.220270  8.405004  3.215065
  C    11.306529 12.298409  2.862581
  N    13.444157  9.063407  2.862067
  N    13.524848 13.080562  2.616381
  N    11.230057  8.041546  1.930583
  N    11.419668 12.186757  1.555699
  N    10.589669  8.889546  5.704001
  N    10.770676 12.638745  5.402244
  S     9.835051  8.420770  4.221912
  S    10.015052 12.171234  3.965677
  S    12.748345  8.508874  1.414795
  S    12.950929 12.516677  1.122698
  S    12.207620  9.313104  5.425358
  S    12.439083 12.779541  5.214791
