16  
    
  C     8.310568  6.621464  2.306302
  C     8.140872 10.100228  2.537685
  C     7.070178  6.163479  1.666861
  C     7.011427  9.407259  1.908411
  N     9.310629  6.643123  1.433771
  N     9.125984 10.398996  1.716007
  N     7.207513  5.729749  0.432683
  N     7.227954  9.122443  0.613707
  N     6.508830  6.421940  4.119645
  N     6.207018  9.888608  4.321814
  S     5.751226  6.016813  2.746964
  S     5.625568  9.275130  2.887631
  S     8.732692  6.048267  0.010236
  S     8.603585  9.852344  0.181146
  S     8.086933  7.012807  3.994209
  S     7.814351 10.355646  4.288586
