16  
    
  C    11.040180  8.026444  3.126552
  C    11.509150 11.734149  3.158039
  C     9.799048  7.420716  2.599448
  C    10.362633 11.327275  2.409187
  N    11.973821  8.251607  2.171851
  N    12.645537 11.729435  2.466771
  N     9.774087  7.167348  1.278467
  N    10.593414 11.110207  1.124579
  N     9.371418  8.051788  5.053626
  N     9.640131 11.481818  4.834293
  S     8.572189  7.296681  3.827368
  S     8.997223 11.159103  3.381928
  S    11.304204  7.591870  0.751149
  S    12.219479 11.501103  0.860200
  S    10.947683  8.450590  4.792797
  S    11.189020 11.965567  4.897499
