16  
    
  C     9.849196  7.420743  2.596091
  C    10.347375 11.381382  2.580240
  C     8.674644  6.701859  2.077632
  C     9.117114 10.840978  1.969112
  N    10.748971  7.673085  1.621426
  N    11.303950 11.539710  1.650436
  N     8.675281  6.414703  0.780703
  N     9.189753 10.650580  0.641247
  N     7.989277  7.350027  4.420564
  N     8.653131 11.088864  4.442206
  S     7.303403  6.550956  3.146556
  S     7.795430 10.853721  3.074772
  S    10.072947  7.058395  0.186451
  S    10.707535 11.111792  0.200832
  S     9.534090  7.929746  4.205642
  S    10.257127 11.541431  4.280001
