16  
    
  C     5.947920  4.838842  1.844732
  C     5.772311  9.233789  1.987076
  C     4.751748  4.505663  1.071637
  C     4.619834  8.623511  1.381351
  N     7.041253  5.064082  1.127768
  N     6.776417  9.445497  1.169684
  N     4.959716  4.430850 -0.234444
  N     4.706041  8.449093  0.062143
  N     3.857927  4.908326  3.457373
  N     4.132318  8.961101  3.929264
  S     3.341958  4.229851  1.989768
  S     3.392681  8.314177  2.511140
  S     6.576562  4.752248 -0.479371
  S     6.276891  8.954125 -0.345650
  S     5.559326  5.111336  3.532178
  S     5.640820  9.600122  3.681726
