16  
    
  C    12.646152  8.961747  3.742027
  C    12.462515 12.658606  3.967255
  C    11.505506  8.409815  3.167126
  C    11.366888 12.180132  3.186852
  N    13.690196  9.181039  2.928758
  N    13.541258 13.010910  3.258934
  N    11.618424  8.260668  1.848306
  N    11.647045 11.925578  1.913349
  N    10.984688  8.453669  5.706323
  N    10.657403 12.297081  5.708016
  S    10.198296  8.177017  4.269437
  S     9.986363 11.909076  4.216402
  S    13.110185  8.675742  1.431571
  S    13.161645 12.655272  1.685651
  S    12.578027  9.045647  5.454281
  S    12.133469 13.010738  5.626889
