16  
    
  C    10.257472  7.144591  2.684564
  C    10.323391 10.992726  2.757937
  C     8.996625  6.974176  2.062269
  C     9.033792 10.777102  2.102278
  N    11.319624  7.314009  1.897788
  N    11.374638 11.090307  1.949150
  N     9.149250  6.972881  0.741851
  N     9.109046 10.739941  0.785236
  N     8.557078  7.395577  4.539181
  N     8.560012 10.735640  4.624441
  S     7.668237  7.053327  3.226203
  S     7.715868 10.941466  3.201322
  S    10.752943  7.207842  0.377670
  S    10.724532 10.972879  0.448805
  S    10.179101  7.415168  4.378948
  S    10.175569 10.999971  4.523081
