16  
    
  C    10.803701  8.239825  2.935524
  C    10.832435 11.964213  3.022192
  C     9.591857  7.812610  2.289969
  C     9.635427 11.578459  2.333730
  N    11.817953  8.487496  2.127641
  N    11.957419 11.992083  2.291955
  N     9.692589  7.682030  0.950247
  N     9.807440 11.219197  1.059380
  N     9.001195  8.117867  4.790610
  N     8.893905 11.826754  4.762467
  S     8.236382  7.664350  3.403831
  S     8.249113 11.161005  3.376713
  S    11.334306  7.993127  0.581350
  S    11.469581 11.525652  0.756694
  S    10.639332  8.351920  4.615658
  S    10.483508 12.161388  4.752948
