16  
    
  C    12.709445  9.075652  3.337320
  C    12.682334 12.908570  3.473769
  C    11.399907  8.753229  2.742081
  C    11.571344 12.259102  2.778896
  N    13.749253  9.228994  2.523694
  N    13.820333 13.052532  2.787180
  N    11.562030  8.588478  1.445341
  N    11.814944 12.109301  1.487830
  N    11.138471  8.885353  5.338931
  N    10.831489 12.504443  5.235179
  S    10.223476  8.501177  4.055235
  S    10.186077 12.042500  3.810206
  S    13.157621  8.757507  1.009495
  S    13.370633 12.717232  1.215385
  S    12.613476  9.492222  5.041950
  S    12.344013 13.190236  5.151425
