16  
    
  C     9.855489  7.601927  2.969383
  C    10.613463 11.476341  3.108968
  C     8.768158  7.095069  2.147568
  C     9.338485 11.050076  2.473080
  N    10.930165  7.910017  2.244959
  N    11.606778 11.661355  2.247401
  N     9.021198  7.020491  0.831271
  N     9.450403 10.809673  1.160741
  N     7.878172  7.284798  4.435021
  N     8.859127 11.434306  5.026076
  S     7.348722  6.669975  3.033332
  S     8.068430 10.850498  3.665065
  S    10.602561  7.669047  0.627328
  S    10.991104 11.248844  0.726934
  S     9.456090  7.697588  4.644737
  S    10.474780 11.959417  4.768317
