16  
    
  C    11.087262  8.189773  3.072241
  C    11.510393 11.706130  3.226996
  C     9.866127  7.561660  2.632413
  C    10.257126 11.503893  2.511937
  N    12.063894  8.330450  2.204911
  N    12.575992 11.787647  2.455936
  N     9.905939  7.110354  1.387426
  N    10.420871 11.369752  1.205441
  N     9.501824  8.073593  5.156667
  N     9.662669 11.450134  4.938336
  S     8.593371  7.445447  3.874316
  S     8.838032 11.345026  3.537021
  S    11.392793  7.650839  0.781114
  S    12.069363 11.337114  0.886337
  S    11.113106  8.449884  4.797394
  S    11.238191 11.862184  4.905301
