16  
    
  C     4.281412  5.070989  1.131081
  C     4.462406  8.229408  1.376029
  C     3.027879  4.696635  0.523788
  C     3.268671  7.890750  0.677396
  N     5.359998  5.031140  0.359208
  N     5.452554  8.647637  0.596194
  N     3.119501  4.691209 -0.783606
  N     3.416882  7.683507 -0.622838
  N     2.692471  4.666426  3.065781
  N     2.569630  8.233731  3.141792
  S     1.764316  4.683685  1.723779
  S     1.847639  7.712133  1.732450
  S     4.775475  4.756621 -1.194947
  S     4.938251  8.244405 -1.014316
  S     4.199910  5.227206  2.824704
  S     4.189244  8.432794  3.121594
