16  
    
  C     9.815985  7.730220  2.800374
  C    10.643933 11.501431  3.150057
  C     8.791752  7.068770  2.013258
  C     9.381505 11.218959  2.406155
  N    10.900538  8.065982  2.083434
  N    11.727258 11.593741  2.380500
  N     9.132264  6.908243  0.725634
  N     9.553964 10.956638  1.116158
  N     7.959765  7.225532  4.387500
  N     8.715928 11.361673  4.919958
  S     7.399647  6.643137  2.974771
  S     7.995681 10.966353  3.416663
  S    10.735149  7.481723  0.540809
  S    11.183288 11.238217  0.826532
  S     9.394631  8.018495  4.475884
  S    10.337713 11.791556  4.846763
