16  
    
  C    12.662688  8.856284  3.633327
  C    12.443487 12.771039  3.935795
  C    11.387929  8.468954  3.005116
  C    11.286436 12.204991  3.223366
  N    13.674600  8.985360  2.804594
  N    13.397914 13.143744  3.093911
  N    11.563487  8.284160  1.723863
  N    11.421586 12.053587  1.902314
  N    10.975890  8.524318  5.504376
  N    10.536615 12.478631  5.653281
  S    10.124374  8.185911  4.181608
  S     9.894107 11.763775  4.226532
  S    13.084621  8.680694  1.246375
  S    12.989793 12.606498  1.566367
  S    12.547712  9.132444  5.370100
  S    12.059603 13.132379  5.587594
