16  
    
  C     5.739426  5.694814  1.838783
  C     5.922678  9.005978  2.078246
  C     4.524123  5.314184  1.231189
  C     4.656990  8.765337  1.437550
  N     6.817915  5.516318  1.097208
  N     6.978236  9.088222  1.270808
  N     4.680577  4.971310 -0.035156
  N     4.826442  8.484967  0.158946
  N     3.977838  5.602916  3.730796
  N     4.074213  8.859318  3.911165
  S     3.199324  5.250244  2.357318
  S     3.277093  8.564035  2.445996
  S     6.279247  5.051449 -0.380663
  S     6.434171  8.704241 -0.218198
  S     5.596656  5.738765  3.544915
  S     5.743401  9.063610  3.812987
