16  
    
  C    10.991431  7.692575  3.142577
  C    11.376055 11.836749  2.950902
  C     9.792791  7.504522  2.362152
  C    10.263802 11.089091  2.413721
  N    12.127598  7.841099  2.443201
  N    12.395639 11.978282  2.116830
  N    10.047740  7.490895  1.070170
  N    10.402355 10.774100  1.125952
  N     9.004993  7.533669  4.728345
  N     9.803975 11.549051  4.916506
  S     8.301066  7.445855  3.286233
  S     9.008401 10.920317  3.604458
  S    11.699128  7.599257  0.890653
  S    11.820134 11.413592  0.601188
  S    10.640165  7.782443  4.866992
  S    11.270941 12.326060  4.622717
