16  
    
  C     6.685027  5.931160  2.297606
  C     6.874063  9.698474  2.342687
  C     5.490718  5.261310  1.795191
  C     5.588909  9.297107  1.720986
  N     7.615726  6.217311  1.384978
  N     7.846328  9.940676  1.484720
  N     5.418082  5.198735  0.453968
  N     5.676926  9.187052  0.390043
  N     5.184009  5.520664  4.334503
  N     5.148642  9.728684  4.258124
  S     4.355161  5.035714  3.004464
  S     4.339587  9.108973  2.873639
  S     6.843874  5.865073 -0.035457
  S     7.157419  9.695285 -0.027487
  S     6.725590  6.008180  4.030209
  S     6.780762  9.942649  4.074781
