16  
    
  C     3.579992  4.467488  1.518291
  C     3.495169  8.402013  1.169052
  C     2.447191  3.817352  0.904996
  C     2.189365  8.000599  0.602186
  N     4.616295  4.656468  0.709133
  N     4.417027  8.713859  0.285400
  N     2.604462  3.732540 -0.402336
  N     2.266499  7.807234 -0.727251
  N     1.759700  4.264430  3.314800
  N     1.946622  8.112192  3.251832
  S     1.168300  3.483421  2.003732
  S     1.044271  7.861617  1.866506
  S     4.067706  4.315089 -0.824690
  S     3.781266  8.319590 -1.214575
  S     3.386884  4.682245  3.217100
  S     3.554456  8.497631  2.915734
