16  
    
  C     6.543905  5.893539  1.978911
  C     6.626511  9.362886  1.876529
  C     5.310773  5.381674  1.431797
  C     5.424171  8.897816  1.278015
  N     7.513396  5.908011  1.077672
  N     7.566291  9.701778  1.014365
  N     5.291983  5.244451  0.105242
  N     5.496657  8.749591 -0.037717
  N     4.950280  5.721843  3.974508
  N     4.997531  8.986578  3.767363
  S     4.055278  5.400680  2.620302
  S     4.115903  8.798565  2.376751
  S     6.851722  5.464060 -0.379875
  S     7.019843  9.316419 -0.469110
  S     6.566650  6.066390  3.704918
  S     6.439812  9.666560  3.564376
