16  
    
  C    12.789847  9.239267  3.421548
  C    12.666656 13.124988  3.583372
  C    11.577790  8.728900  2.808856
  C    11.576990 12.453771  2.914451
  N    13.774559  9.435513  2.562738
  N    13.737434 13.186350  2.797154
  N    11.698444  8.418607  1.513202
  N    11.726230 12.161460  1.619002
  N    10.964734  9.167510  5.184149
  N    10.837731 12.596370  5.384511
  S    10.262115  8.641194  3.825015
  S    10.212215 12.119508  3.905281
  S    13.234787  8.899917  1.048637
  S    13.291271 12.603240  1.362666
  S    12.551269  9.474761  5.148733
  S    12.355116 13.198304  5.271350
