16  
    
  C     9.202437  6.833913  2.356940
  C     9.158924 10.858711  2.962857
  C     8.033821  6.205386  1.805254
  C     7.942114 10.417996  2.410005
  N    10.322369  6.743990  1.633516
  N    10.220670 10.781232  2.188233
  N     8.207837  5.731983  0.579678
  N     8.035901 10.031012  1.127979
  N     7.434680  6.931476  4.180219
  N     7.381519 10.984508  4.797584
  S     6.633231  6.346135  2.828845
  S     6.563140 10.615530  3.415080
  S     9.802843  6.036898  0.208539
  S     9.600581 10.214906  0.712726
  S     9.054185  7.222783  3.994061
  S     9.043338 11.105115  4.670333
