16  
    
  C     3.786995  4.687109  1.592364
  C     3.782544  8.424588  1.685273
  C     2.512307  4.499709  0.983231
  C     2.612882  7.902150  1.052289
  N     4.775693  4.670269  0.730445
  N     4.828064  8.491816  0.888611
  N     2.470216  4.484013 -0.334252
  N     2.765813  7.440852 -0.162769
  N     1.942814  4.740213  3.414281
  N     1.957998  8.405787  3.496283
  S     1.191235  4.429116  1.999061
  S     1.235903  7.926857  2.125052
  S     4.095191  4.464426 -0.805489
  S     4.350318  7.838786 -0.555952
  S     3.605459  4.904006  3.362071
  S     3.576252  8.788337  3.380913
