16  
    
  C    12.272881  9.240409  3.527802
  C    12.443670 12.710149  3.469686
  C    11.234714  8.594120  2.782180
  C    11.202081 12.281258  2.943346
  N    13.254057  9.737471  2.764330
  N    13.416441 12.910653  2.607919
  N    11.427742  8.413656  1.458878
  N    11.253732 11.998901  1.646525
  N    10.613313  8.361952  5.247260
  N    10.940557 12.552348  5.488426
  S     9.977291  7.927097  3.852935
  S     9.978745 12.179008  4.163282
  S    12.966311  9.206774  1.214447
  S    12.719898 12.529225  1.145559
  S    12.048710  9.182754  5.298803
  S    12.465302 13.019004  5.158362
