16  
    
  C    10.986258  7.710933  3.106009
  C    11.106953 11.764934  2.731662
  C     9.734106  7.399742  2.526680
  C     9.909475 11.105874  2.213601
  N    11.960463  7.886594  2.211224
  N    12.120595 11.949743  1.890004
  N     9.735982  7.331006  1.210893
  N    10.036053 10.964502  0.906882
  N     9.283272  7.656307  5.012810
  N     9.407325 11.494675  4.784287
  S     8.449466  7.139326  3.703101
  S     8.592637 10.975737  3.389583
  S    11.259919  7.765503  0.765532
  S    11.531962 11.347110  0.408388
  S    10.901221  7.752213  4.854025
  S    10.988767 12.023885  4.415246
