16  
    
  C    12.052974  8.549920  3.288497
  C    12.109332 12.156528  3.220690
  C    10.760832  8.330473  2.729658
  C    10.871007 11.695910  2.616925
  N    12.993371  8.705058  2.315813
  N    13.111988 12.236955  2.370966
  N    10.721608  8.233217  1.392621
  N    10.903575 11.479140  1.324696
  N    10.397508  8.472121  5.342651
  N    10.251450 11.944557  5.110324
  S     9.488149  8.089298  3.907102
  S     9.556730 11.565377  3.634910
  S    12.292883  8.359439  0.887699
  S    12.434300 11.936572  0.888761
  S    12.009311  8.687467  5.015397
  S    11.901237 12.388045  4.950895
