16  
    
  C    11.002852  8.009464  3.058162
  C    11.586778 11.632823  3.191907
  C     9.780414  7.462332  2.590548
  C    10.422418 11.263281  2.391048
  N    11.980936  8.146129  2.160785
  N    12.672491 11.855379  2.461634
  N     9.832729  7.226723  1.291080
  N    10.679941 11.068132  1.102509
  N     9.277183  8.048498  5.068683
  N     9.630079 11.523424  4.856384
  S     8.501482  7.236791  3.779194
  S     8.973346 11.097175  3.400555
  S    11.334419  7.592375  0.746187
  S    12.224693 11.526570  0.835397
  S    10.905136  8.415114  4.780254
  S    11.209608 12.023582  4.845727
