16  
    
  C     4.272353  4.887131  1.523483
  C     4.175921  8.391067  1.384835
  C     3.023576  4.608653  0.877935
  C     3.018399  7.927124  0.765737
  N     5.283961  4.893888  0.649755
  N     5.229802  8.462394  0.563081
  N     3.061480  4.328691 -0.443530
  N     3.109622  7.685587 -0.538094
  N     2.417964  4.714031  3.402970
  N     2.404966  8.324273  3.256989
  S     1.659552  4.481086  1.928222
  S     1.624371  7.920700  1.815349
  S     4.620898  4.612834 -0.856501
  S     4.666342  8.076864 -0.921568
  S     4.065880  4.994222  3.290047
  S     4.022013  8.635261  3.091066
