16  
    
  C     4.201397  4.885024  1.428693
  C     4.279568  8.337875  1.368071
  C     2.971953  4.461490  0.778544
  C     2.979998  8.046838  0.691178
  N     5.274511  4.986659  0.623745
  N     5.312191  8.448452  0.541952
  N     3.135589  4.441164 -0.537032
  N     3.127975  7.707047 -0.595437
  N     2.468648  4.787958  3.299670
  N     2.468348  8.279340  3.207823
  S     1.616751  4.531203  1.948510
  S     1.719773  7.866629  1.849240
  S     4.734533  4.677635 -0.930854
  S     4.721159  8.036397 -1.015700
  S     4.124472  4.989314  3.187009
  S     4.082640  8.648914  3.067757
