16  
    
  C    12.366414  9.053399  3.381935
  C    12.311566 12.826450  3.464568
  C    11.273481  8.487946  2.628489
  C    11.090883 12.235751  2.926435
  N    13.456632  9.422252  2.701458
  N    13.262278 12.939689  2.555618
  N    11.509229  8.579155  1.315636
  N    11.058946 12.011981  1.616224
  N    10.550630  8.435608  5.214504
  N    10.750050 12.720830  5.462030
  S     9.972025  8.052603  3.680287
  S    10.013874 11.819991  4.237942
  S    13.080977  9.218309  1.099898
  S    12.626325 12.480708  1.157229
  S    12.092580  9.195173  5.052002
  S    12.337641 13.034480  5.118762
