16  
    
  C    12.771238  9.183957  3.443090
  C    12.711258 12.911298  3.636819
  C    11.600884  8.702111  2.786051
  C    11.559849 12.319292  2.981609
  N    13.814987  9.514839  2.668297
  N    13.744578 13.101172  2.808489
  N    11.844778  8.402524  1.515769
  N    11.693938 12.089671  1.661458
  N    10.951580  9.312391  5.254814
  N    10.937341 12.647782  5.450731
  S    10.203908  8.627317  3.879339
  S    10.109000 12.241126  4.067259
  S    13.363852  8.996733  1.102134
  S    13.260583 12.617667  1.301053
  S    12.594204  9.543849  5.118269
  S    12.513177 13.215985  5.365496
