16  
    
  C     5.368426  5.440099  1.737736
  C     5.109949  8.905856  1.717153
  C     4.152284  5.086428  1.095298
  C     3.867117  8.544504  1.063014
  N     6.488169  5.425926  1.001697
  N     6.058327  9.287753  0.856709
  N     4.278638  4.975258 -0.240152
  N     4.029467  8.362148 -0.260606
  N     3.551090  5.402909  3.639275
  N     3.362093  8.682232  3.622266
  S     2.795058  5.237148  2.195007
  S     2.539658  8.333853  2.178356
  S     5.891888  5.283612 -0.547918
  S     5.532467  8.871816 -0.679565
  S     5.259073  5.517667  3.447686
  S     5.019728  8.885710  3.486551
