16  
    
  C    10.979669  7.856862  3.139962
  C    11.518199 11.974500  3.023885
  C     9.823218  7.547754  2.377261
  C    10.388422 11.211083  2.493432
  N    12.129056  7.899713  2.431945
  N    12.516712 12.172148  2.159035
  N    10.018331  7.317943  1.075491
  N    10.532114 10.930789  1.210223
  N     9.027437  7.791336  4.779854
  N     9.837342 11.488027  4.937121
  S     8.309575  7.397687  3.341939
  S     9.083154 10.872123  3.609092
  S    11.652951  7.615317  0.841892
  S    12.049437 11.340816  0.703559
  S    10.623256  8.001965  4.840261
  S    11.289669 12.265215  4.710736
