16  
    
  C     6.554573  5.792978  1.990114
  C     6.635315  9.412798  1.900738
  C     5.281610  5.411688  1.420540
  C     5.453701  8.852977  1.254323
  N     7.540855  5.934239  1.106522
  N     7.593305  9.639342  1.002007
  N     5.296374  5.198015  0.103482
  N     5.513823  8.720403 -0.067110
  N     4.955891  5.752443  4.008183
  N     4.883920  8.937567  3.798225
  S     4.105729  5.384918  2.613121
  S     4.114574  8.742254  2.339540
  S     6.850511  5.500199 -0.339894
  S     7.005717  9.327720 -0.486294
  S     6.510845  6.074783  3.720575
  S     6.445457  9.671642  3.607399
