16  
    
  C     9.291281  6.996290  2.507397
  C     8.922155 10.952817  2.306473
  C     8.055308  6.492447  2.029807
  C     7.744636 10.407500  1.754416
  N    10.207817  7.145556  1.553215
  N     9.899018 11.185075  1.417099
  N     8.010405  6.296588  0.735224
  N     7.839087 10.134658  0.443471
  N     7.509309  6.952687  4.435413
  N     7.227122 10.518110  4.238788
  S     6.740669  6.331845  3.111729
  S     6.414365 10.132643  2.818719
  S     9.474749  6.706597  0.138239
  S     9.379194 10.619164 -0.003032
  S     9.166758  7.376586  4.259459
  S     8.666064 11.297662  4.046936
