16  
    
  C     4.438131  5.170779  1.615269
  C     4.286920  8.641328  1.520394
  C     3.257071  4.657317  0.952747
  C     3.026690  8.195461  0.872433
  N     5.554403  5.116591  0.858078
  N     5.280223  8.843396  0.641086
  N     3.468723  4.440377 -0.376982
  N     3.188313  7.815317 -0.407870
  N     2.739458  5.042645  3.536884
  N     2.548254  8.342333  3.458368
  S     1.896314  4.635823  2.175379
  S     1.782814  7.897610  2.036499
  S     5.047041  4.842686 -0.679732
  S     4.776195  8.217263 -0.830659
  S     4.347284  5.418680  3.353976
  S     4.111666  8.847562  3.247127
