16  
    
  C    12.028944  8.531917  3.624893
  C    12.023703 12.060045  3.294298
  C    10.865062  8.130124  2.882717
  C    10.840305 11.477250  2.703821
  N    13.127765  8.647677  2.891401
  N    13.005349 12.343278  2.455536
  N    11.108154  7.992643  1.564319
  N    10.879125 11.397019  1.378637
  N    10.170888  8.341410  5.296337
  N    10.315088 12.008766  5.208163
  S     9.476129  7.952125  3.892039
  S     9.506249 11.518632  3.832303
  S    12.692277  8.468152  1.342450
  S    12.472621 11.896442  0.946313
  S    11.780184  8.770616  5.330325
  S    11.915487 12.307347  5.049296
