16  
    
  C     5.044169  5.392213  1.869707
  C     5.111101  8.689493  1.420983
  C     3.820289  4.925242  1.317364
  C     3.833015  8.333618  0.871282
  N     6.099774  5.361786  1.052561
  N     6.064050  8.828832  0.502228
  N     3.894447  4.600127  0.011692
  N     3.913837  8.080154 -0.430939
  N     3.405514  5.801176  3.806116
  N     3.396019  8.849077  3.369365
  S     2.508227  5.235435  2.454024
  S     2.554090  8.338224  2.047543
  S     5.534591  4.677868 -0.348976
  S     5.401962  8.403326 -0.947551
  S     5.057011  5.776216  3.549710
  S     5.043647  8.999610  3.149120
