16  
    
  C    11.790714  8.780665  3.512853
  C    11.558453 12.173488  3.271174
  C    10.554102  8.384553  2.825527
  C    10.423727 11.750408  2.536335
  N    12.859885  8.781041  2.730117
  N    12.693329 12.325162  2.599336
  N    10.708209  8.198490  1.502800
  N    10.735487 11.479066  1.264810
  N    10.007832  8.538355  5.357069
  N     9.663024 11.850246  4.918516
  S     9.219309  8.222107  3.905755
  S     8.984367 11.553535  3.514012
  S    12.314481  8.420667  1.197612
  S    12.270558 11.889790  1.017716
  S    11.590094  8.976445  5.284312
  S    11.244537 12.179995  4.995438
