16  
    
  C     5.992243  5.119522  1.624839
  C     5.983348  9.132938  1.973605
  C     4.759622  4.703063  0.977617
  C     4.727595  8.752782  1.342981
  N     7.040648  5.201736  0.794289
  N     6.998426  9.236085  1.134366
  N     4.903069  4.459129 -0.323311
  N     4.844848  8.430398  0.062580
  N     4.172057  4.694032  3.504168
  N     4.227223  8.829490  3.882031
  S     3.428054  4.477368  2.044132
  S     3.404115  8.594317  2.405060
  S     6.471846  4.821963 -0.751981
  S     6.461944  8.754207 -0.355480
  S     5.817434  5.020040  3.397472
  S     5.837635  9.273738  3.658262
