16  
    
  C     4.646296  5.111967  1.972502
  C     4.655536  8.617419  1.398337
  C     3.463658  4.685108  1.276089
  C     3.475107  8.153581  0.754898
  N     5.641183  5.314930  1.104746
  N     5.715536  8.712518  0.606242
  N     3.519287  4.499808 -0.029246
  N     3.670084  7.896993 -0.528352
  N     2.671653  4.831439  3.704296
  N     2.856887  8.317977  3.229205
  S     2.017860  4.487082  2.208114
  S     2.079034  7.967014  1.840839
  S     5.066171  4.977877 -0.448582
  S     5.236868  8.282845 -0.889871
  S     4.261013  5.239906  3.688447
  S     4.409361  8.844197  3.134752
