16  
    
  C     5.614342  5.442210  1.968347
  C     5.555160  9.012657  1.864070
  C     4.396617  4.818842  1.408541
  C     4.401644  8.411582  1.182676
  N     6.501233  5.721621  1.011396
  N     6.619539  9.216478  1.089705
  N     4.521115  4.375356  0.155645
  N     4.575409  8.349892 -0.151034
  N     4.079886  4.901939  3.992376
  N     3.878340  8.426492  3.723155
  S     3.207159  4.402048  2.611934
  S     3.117263  8.135557  2.331310
  S     5.917701  5.091308 -0.427129
  S     6.103403  8.853708 -0.455894
  S     5.538711  5.712623  3.724412
  S     5.387399  9.118896  3.596330
