16  
    
  C    11.293661  8.105252  3.348572
  C    11.383278 12.045134  3.258449
  C    10.118153  7.789276  2.681297
  C    10.040606 11.658206  2.797743
  N    12.384192  8.155826  2.568253
  N    12.356026 11.855885  2.352885
  N    10.289019  7.616956  1.366183
  N    10.004866 11.348711  1.501458
  N     9.496134  8.388660  5.073598
  N     9.842711 12.189247  5.301630
  S     8.756361  7.740659  3.720254
  S     8.825991 11.793538  4.110804
  S    11.887630  7.840888  1.053121
  S    11.562790 11.411115  0.947505
  S    11.094218  8.549614  5.036141
  S    11.458334 12.314870  4.995069
