16  
    
  C    10.177937  7.696128  3.036142
  C    10.531703 11.798334  2.991254
  C     8.942123  7.333533  2.367256
  C     9.299289 11.085009  2.596081
  N    11.190255  7.973593  2.210400
  N    11.454023 11.973966  2.021040
  N     9.040447  7.313901  1.038527
  N     9.307587 10.713562  1.313815
  N     8.485636  7.093831  4.858430
  N     9.157817 11.473537  5.127972
  S     7.699926  6.887999  3.412237
  S     8.216479 10.838524  3.930780
  S    10.680615  7.627486  0.673489
  S    10.749721 11.298212  0.656127
  S    10.115585  7.559588  4.764901
  S    10.644871 12.059827  4.699245
