16  
    
  C     9.237337  6.716603  2.380688
  C     9.558441 10.537917  2.823644
  C     8.030044  6.303119  1.689144
  C     8.254408 10.248371  2.184122
  N    10.341961  6.937925  1.655779
  N    10.582655 10.566459  1.930606
  N     8.280728  6.209457  0.367482
  N     8.379479  9.982726  0.868591
  N     7.436337  6.434994  4.234224
  N     7.839396 10.626842  4.727425
  S     6.651670  6.068686  2.837572
  S     6.969078 10.346866  3.369878
  S     9.877198  6.559804  0.087360
  S     9.916093 10.195699  0.426372
  S     9.087833  6.736801  4.116471
  S     9.459970 10.928204  4.514328
