16  
    
  C     8.433535  6.663335  2.301443
  C     8.106815 10.281663  2.633517
  C     7.225279  6.078612  1.705036
  C     7.069561  9.621182  1.825278
  N     9.455161  6.748827  1.479450
  N     9.272067 10.471384  1.982346
  N     7.337159  5.840018  0.404746
  N     7.394131  9.382120  0.551802
  N     6.779064  6.457662  4.242007
  N     6.285357  9.741620  4.329743
  S     5.949570  6.039147  2.888557
  S     5.739966  9.144308  2.889518
  S     8.852986  6.244653 -0.017024
  S     8.982575  9.843578  0.425917
  S     8.275769  7.074039  3.963894
  S     7.752959 10.516243  4.285619
