16  
    
  C     5.454126  5.428699  1.652671
  C     5.263477  8.984090  1.555907
  C     4.155757  5.166560  1.078800
  C     4.121347  8.352177  0.908155
  N     6.377899  5.757973  0.740904
  N     6.336865  9.049138  0.767687
  N     4.132290  5.031825 -0.259308
  N     4.331834  8.163573 -0.393269
  N     3.776756  5.385594  3.592087
  N     3.400889  8.773939  3.330323
  S     2.893852  4.991118  2.248586
  S     2.731000  8.314153  1.894667
  S     5.671585  5.357964 -0.772309
  S     5.872034  8.577169 -0.739435
  S     5.363487  5.688366  3.412342
  S     4.949837  9.323243  3.215790
