16  
    
  C    12.746809  8.984389  3.824134
  C    12.601554 12.793951  3.960896
  C    11.564485  8.367583  3.223406
  C    11.476640 12.195388  3.248330
  N    13.703559  9.220733  2.940789
  N    13.663149 13.065442  3.216791
  N    11.637608  8.220800  1.903962
  N    11.714851 12.073023  1.949167
  N    10.958177  8.589004  5.784136
  N    10.655557 12.310300  5.651976
  S    10.251293  8.118216  4.302985
  S    10.068496 11.871500  4.147521
  S    13.073616  8.813575  1.460014
  S    13.246389 12.504367  1.650306
  S    12.605615  9.042339  5.658534
  S    12.299797 12.805355  5.683693
