16  
    
  C     5.501035  5.302711  1.792437
  C     5.072349  9.076352  1.663081
  C     4.212596  5.144394  1.219444
  C     3.897400  8.553790  1.034034
  N     6.449718  5.480481  0.860734
  N     6.151543  9.237903  0.878562
  N     4.186395  5.013371 -0.099785
  N     4.045327  8.332092 -0.269323
  N     3.778700  5.323978  3.677867
  N     3.356249  8.742120  3.539446
  S     2.884149  5.205554  2.318883
  S     2.578077  8.293852  2.148100
  S     5.744295  5.207470 -0.602533
  S     5.582104  8.747070 -0.599355
  S     5.439838  5.398872  3.597519
  S     4.981329  8.997143  3.371929
