16  
    
  C    12.432485  8.966890  3.766727
  C    12.508827 12.860692  3.458254
  C    11.230982  8.400953  3.216303
  C    11.308959 12.312525  2.866893
  N    13.440124  9.067234  2.864013
  N    13.529045 13.079181  2.621344
  N    11.232822  8.048860  1.931665
  N    11.423498 12.190619  1.560688
  N    10.586065  8.884759  5.698792
  N    10.774091 12.632251  5.406891
  S     9.836826  8.414093  4.228184
  S    10.012961 12.172202  3.958422
  S    12.747812  8.507752  1.415701
  S    12.950093 12.518812  1.121019
  S    12.205322  9.309740  5.430974
  S    12.444150 12.780614  5.221964
