16  
    
  C     6.888984  5.885946  2.159552
  C     7.210681  9.890092  2.327363
  C     5.862239  5.403690  1.269526
  C     5.998943  9.494794  1.712395
  N     8.078228  5.861879  1.588102
  N     8.251655 10.004653  1.507444
  N     6.258517  5.112939  0.038063
  N     6.079470  9.333367  0.395545
  N     4.721866  5.675715  3.607188
  N     5.505162  9.574926  4.277371
  S     4.264250  5.290128  1.984599
  S     4.644432  9.333942  2.767630
  S     7.887445  5.417368 -0.012591
  S     7.690087  9.765762 -0.003375
  S     6.328770  6.157340  3.825572
  S     7.051175 10.039472  4.066693
