16  
    
  C     9.531381  7.534467  2.569904
  C    10.177373 11.399025  2.528667
  C     8.464037  6.754961  2.047173
  C     8.976791 10.951769  1.964538
  N    10.515082  7.860618  1.740722
  N    11.198587 11.487228  1.665874
  N     8.674866  6.341492  0.791268
  N     9.018037 10.715827  0.646664
  N     7.819402  7.484056  4.484160
  N     8.564161 11.114886  4.511677
  S     7.181439  6.547979  3.263664
  S     7.709647 10.720003  3.163684
  S    10.173868  7.002818  0.346505
  S    10.594555 11.043162  0.203046
  S     9.428958  7.917132  4.261312
  S    10.122053 11.593940  4.272566
