16  
    
  C     3.795046  4.628148  1.621830
  C     3.780062  8.493771  1.660080
  C     2.520743  4.561943  0.963690
  C     2.621406  7.859229  1.103257
  N     4.766701  4.694774  0.683057
  N     4.879979  8.460524  0.890646
  N     2.526259  4.417646 -0.349653
  N     2.749013  7.489552 -0.188635
  N     1.920316  4.684463  3.485347
  N     1.987803  8.415491  3.562566
  S     1.193293  4.394803  1.969428
  S     1.224379  7.923726  2.154715
  S     4.049808  4.542633 -0.859984
  S     4.330605  7.825358 -0.595997
  S     3.539805  4.905417  3.375812
  S     3.591428  8.763350  3.376645
