16  
    
  C    12.778750  9.119983  3.417832
  C    12.809556 12.705317  3.468724
  C    11.498106  8.602953  2.924677
  C    11.631362 12.169832  2.795797
  N    13.739603  9.126008  2.510866
  N    13.810831 13.060816  2.627219
  N    11.477970  8.418594  1.638347
  N    11.780821 12.104055  1.472989
  N    11.131983  8.982864  5.390277
  N    10.881201 12.410588  5.251799
  S    10.264052  8.419551  4.020454
  S    10.219191 12.007425  3.765595
  S    12.988779  8.837830  1.019776
  S    13.317902 12.640742  1.135730
  S    12.706184  9.433055  5.133965
  S    12.442020 13.078054  5.172743
