16  
    
  C    10.840533  7.986871  3.118197
  C    10.564391 11.970921  3.156512
  C     9.557862  7.580767  2.571997
  C     9.414804 11.300884  2.707579
  N    11.844570  8.122458  2.212397
  N    11.416153 12.358250  2.201585
  N     9.605913  7.411876  1.255121
  N     9.459644 11.061248  1.390443
  N     9.185893  7.658550  5.108331
  N     9.156090 11.700868  5.234856
  S     8.357049  7.127274  3.758548
  S     8.307257 10.926321  4.002494
  S    11.147099  7.811588  0.737077
  S    10.850948 11.654098  0.793431
  S    10.775541  7.965883  4.903819
  S    10.720424 12.129829  4.906383
