16  
    
  C     8.053200  6.377252  2.274245
  C     8.042711 10.170198  2.277404
  C     6.838320  5.869543  1.616825
  C     6.772365  9.765858  1.627923
  N     9.098940  6.526374  1.483695
  N     9.082590 10.195195  1.478013
  N     6.965380  5.783186  0.299736
  N     6.856285  9.567109  0.300571
  N     6.306006  6.143981  4.148002
  N     6.335605  9.863488  4.196873
  S     5.556255  5.756035  2.760969
  S     5.525362  9.495766  2.805117
  S     8.510702  6.229548 -0.031509
  S     8.453726  9.862787 -0.089371
  S     7.970055  6.499057  3.965265
  S     7.875210 10.401595  3.992580
