16  
    
  C    12.698719  8.967543  3.785188
  C    12.490841 12.657028  3.965582
  C    11.514128  8.435136  3.184794
  C    11.356645 12.169233  3.203294
  N    13.687125  9.197503  2.936640
  N    13.554532 13.025279  3.242092
  N    11.629994  8.237970  1.894380
  N    11.647014 11.939819  1.920518
  N    10.985711  8.467093  5.679850
  N    10.679008 12.292811  5.697962
  S    10.193647  8.168112  4.284966
  S     9.987597 11.907490  4.189785
  S    13.109333  8.688635  1.415190
  S    13.182523 12.640310  1.696744
  S    12.572100  9.036420  5.479111
  S    12.159111 12.994310  5.652398
