16  
    
  C    12.255567  9.252994  3.548392
  C    12.448317 12.709188  3.455507
  C    11.234902  8.551396  2.781112
  C    11.164834 12.317529  2.934608
  N    13.224753  9.729996  2.782981
  N    13.436093 12.928533  2.594315
  N    11.417872  8.411367  1.462445
  N    11.270531 11.991187  1.651295
  N    10.634504  8.373883  5.270462
  N    10.923720 12.566660  5.496374
  S     9.961302  7.920122  3.874931
  S     9.965798 12.185467  4.164442
  S    12.978203  9.205409  1.227648
  S    12.746899 12.543692  1.151579
  S    12.062348  9.184114  5.307374
  S    12.485341 13.003647  5.165242
