16  
    
  C     9.871371  7.638579  2.699329
  C     9.893639 11.273688  2.942244
  C     8.617161  7.295448  2.055239
  C     8.670239 10.814050  2.243097
  N    10.926044  7.819224  1.907064
  N    10.982759 11.403396  2.133236
  N     8.784281  7.281674  0.731109
  N     8.856996 10.751225  0.902138
  N     8.163076  7.292876  4.521820
  N     8.024754 11.076549  4.728563
  S     7.298720  7.210539  3.152461
  S     7.322340 10.609485  3.296715
  S    10.391758  7.572736  0.372850
  S    10.456829 11.089494  0.620203
  S     9.755576  7.772216  4.418771
  S     9.628873 11.370615  4.684236
