16  
    
  C     9.531658  7.597303  2.575386
  C    10.162947 11.390242  2.575645
  C     8.427596  6.761443  2.085147
  C     8.886647 10.889838  1.985344
  N    10.549362  7.887433  1.749675
  N    11.174409 11.428087  1.743467
  N     8.662254  6.395941  0.822249
  N     8.972723 10.757685  0.672850
  N     7.838576  7.423302  4.510795
  N     8.561768 11.072088  4.515101
  S     7.145822  6.561024  3.276385
  S     7.680629 10.717166  3.153409
  S    10.192922  6.994444  0.398933
  S    10.539541 11.036145  0.201070
  S     9.380153  7.929135  4.262642
  S    10.086830 11.604130  4.283728
