16  
    
  C     4.240508  4.814731  1.302482
  C     4.353796  8.420176  1.311721
  C     2.971449  4.612805  0.658235
  C     3.105592  7.960574  0.680269
  N     5.317902  5.037294  0.529417
  N     5.378354  8.382410  0.450049
  N     3.137166  4.453244 -0.656579
  N     3.200937  7.846110 -0.646551
  N     2.485603  4.890344  3.224495
  N     2.602785  8.213337  3.214185
  S     1.671325  4.566553  1.824146
  S     1.800750  7.765250  1.795272
  S     4.750341  4.783641 -0.968370
  S     4.798709  8.005631 -1.033252
  S     4.150710  5.035268  2.992127
  S     4.233100  8.648408  3.012571
