16  
    
  C     7.884953  6.306491  2.157774
  C     8.111111 10.556825  2.211115
  C     6.704612  5.746277  1.544489
  C     6.994914  9.883563  1.588212
  N     8.863651  6.585871  1.283289
  N     9.074530 10.826433  1.330968
  N     6.719042  5.779057  0.209856
  N     7.127771  9.595220  0.325493
  N     6.224756  5.684219  4.044378
  N     6.299909 10.118866  4.015673
  S     5.341089  5.523924  2.623105
  S     5.562901  9.703844  2.588591
  S     8.263199  6.313247 -0.232602
  S     8.592352 10.143494 -0.142831
  S     7.764354  6.314933  3.905991
  S     7.870143 10.663873  3.926064
