16  
    
  C    12.794793  9.294491  3.487644
  C    12.831102 12.965197  3.491750
  C    11.672863  8.743560  2.794200
  C    11.581051 12.600866  2.899027
  N    13.873621  9.405456  2.719894
  N    13.867526 12.956471  2.631559
  N    11.879212  8.365276  1.542352
  N    11.613923 12.242627  1.604897
  N    11.043420  9.039683  5.295800
  N    11.130100 13.079818  5.433736
  S    10.377152  8.482035  3.862798
  S    10.327066 12.471962  4.143542
  S    13.451480  8.886127  1.195520
  S    13.243514 12.380244  1.270366
  S    12.645915  9.714644  5.078103
  S    12.693230 13.222755  5.193880
