16  
    
  C     9.110171  7.131776  2.538544
  C     8.824306 11.114046  2.314235
  C     7.862536  6.647886  2.023459
  C     7.703887 10.444685  1.717377
  N    10.088216  7.333548  1.659700
  N     9.821464 11.409907  1.491507
  N     7.934059  6.209768  0.760067
  N     7.876338 10.129895  0.443714
  N     7.502497  7.024464  4.567152
  N     7.216031 10.542716  4.235820
  S     6.732424  6.299989  3.305428
  S     6.415552 10.151610  2.840518
  S     9.470716  6.634840  0.220502
  S     9.305076 10.777539  0.014880
  S     9.118309  7.393096  4.295694
  S     8.700803 11.291004  4.067142
