16  
    
  C     9.291489  6.618047  2.551741
  C     9.623949 10.615918  2.797616
  C     8.111702  6.296432  1.816179
  C     8.405184 10.242630  2.211586
  N    10.297345  6.875286  1.714988
  N    10.602855 10.842750  1.922912
  N     8.161122  6.250081  0.489322
  N     8.436498 10.049002  0.912210
  N     7.382293  6.388620  4.270592
  N     8.008312 10.462210  4.750214
  S     6.719272  6.016910  2.804908
  S     7.123283  9.974125  3.426209
  S     9.678294  6.703135  0.156096
  S     9.927994 10.424674  0.435168
  S     9.017904  6.814191  4.282185
  S     9.607068 10.938958  4.494422
