16  
    
  C     9.613402  7.243690  3.010033
  C     9.596768 10.869232  2.691621
  C     8.484174  6.716098  2.279207
  C     8.344584 10.466465  2.073103
  N    10.608722  7.715174  2.224075
  N    10.582107 11.161548  1.809462
  N     8.650265  6.700353  0.968247
  N     8.405014 10.353066  0.742425
  N     7.697603  6.573205  4.685056
  N     7.896493 10.572747  4.644225
  S     7.167035  6.131585  3.113665
  S     7.091742 10.213921  3.205906
  S    10.155409  7.291995  0.664432
  S     9.995470 10.816444  0.333536
  S     9.224589  7.230304  4.726628
  S     9.515304 10.974295  4.441580
