16  
    
  C     7.869573  6.216395  2.176749
  C     8.068409 10.397133  2.186673
  C     6.628994  5.801951  1.508213
  C     6.884185  9.800839  1.538975
  N     8.865866  6.591501  1.361422
  N     9.084936 10.741270  1.392061
  N     6.787594  5.813708  0.178199
  N     7.085674  9.601963  0.225890
  N     6.242738  5.742283  4.060087
  N     6.276705 10.132637  4.059501
  S     5.331354  5.479123  2.649449
  S     5.526934  9.693094  2.626621
  S     8.274486  6.312557 -0.157544
  S     8.617425 10.131167 -0.145387
  S     7.837392  6.299577  3.863854
  S     7.905953 10.613064  3.910054
