16  
    
  C     7.832796  6.432326  2.356478
  C     7.939017 10.517856  2.044030
  C     6.697932  5.868520  1.613044
  C     6.695693  9.876608  1.593795
  N     8.916650  6.618210  1.647460
  N     8.854098 10.701906  1.103868
  N     6.892099  5.849800  0.312862
  N     6.755094  9.542863  0.330209
  N     5.914050  6.370453  4.065313
  N     6.485539 10.263517  4.118331
  S     5.300476  5.811243  2.589078
  S     5.520033  9.823664  2.851062
  S     8.490948  6.346191  0.079831
  S     8.311580 10.075161 -0.250356
  S     7.528509  6.593810  4.011838
  S     8.031672 10.751448  3.725350
