16  
    
  C    12.716981  8.908439  3.598722
  C    12.369416 12.810886  3.886124
  C    11.493186  8.427820  3.015742
  C    11.217174 12.254759  3.195942
  N    13.736914  8.960583  2.711581
  N    13.351525 13.184258  3.055815
  N    11.521955  8.307722  1.672299
  N    11.392808 12.068410  1.905299
  N    10.925390  8.590302  5.568577
  N    10.477039 12.506393  5.585884
  S    10.110051  8.189757  4.100780
  S     9.935745 11.741814  4.205617
  S    13.026972  8.696829  1.215012
  S    12.898678 12.574732  1.538080
  S    12.504094  9.125923  5.316959
  S    12.076445 13.146958  5.582146
