16  
    
  C     5.821437  5.010063  1.847650
  C     5.776336  9.356331  1.978726
  C     4.666522  4.521258  1.121030
  C     4.599149  8.659955  1.452020
  N     6.917145  5.170287  1.137036
  N     6.742939  9.568043  1.084248
  N     4.944153  4.365982 -0.175737
  N     4.712212  8.377751  0.162896
  N     3.944609  4.763683  3.534223
  N     4.117337  8.825072  3.924094
  S     3.270763  4.286260  2.128140
  S     3.328241  8.272881  2.597510
  S     6.529839  4.722762 -0.369788
  S     6.179411  8.963147 -0.354521
  S     5.516688  5.206515  3.516951
  S     5.599658  9.553995  3.729031
