16  
    
  C    11.778287  8.560927  3.505310
  C    11.713953 11.882439  3.391136
  C    10.601831  8.217013  2.807262
  C    10.461328 11.663132  2.669652
  N    12.839279  8.758569  2.718639
  N    12.749855 11.944086  2.563449
  N    10.770228  8.009414  1.487008
  N    10.527187 11.647679  1.350107
  N     9.891778  8.563888  5.257738
  N     9.725086 11.801856  5.175139
  S     9.196801  8.284734  3.755440
  S     9.064701 11.450197  3.619414
  S    12.338138  8.472670  1.131382
  S    12.190778 11.867852  1.022280
  S    11.561752  8.855657  5.245923
  S    11.414562 11.972237  5.140319
