16  
    
  C    12.328987  8.917896  3.682948
  C    12.455980 12.670182  3.409223
  C    11.108916  8.380847  3.075387
  C    11.181243 12.230125  2.800595
  N    13.329236  8.973879  2.822929
  N    13.454585 12.961994  2.603488
  N    11.262984  8.110900  1.749585
  N    11.409311 11.934050  1.527493
  N    10.685431  9.010376  5.491570
  N    10.773345 12.705925  5.360092
  S     9.781695  8.607962  4.244352
  S     9.932829 12.077067  4.007927
  S    12.811775  8.499103  1.344595
  S    12.931534 12.519193  1.068652
  S    12.286578  9.422445  5.316587
  S    12.404608 12.913923  5.121505
