16  
    
  C     9.302201  6.884488  2.518546
  C     8.919333 10.918975  2.325447
  C     8.007260  6.484656  1.917303
  C     7.714895 10.367699  1.684834
  N    10.248550  7.109169  1.612684
  N     9.967240 11.066164  1.532079
  N     8.030353  6.233898  0.604845
  N     7.885055 10.114512  0.385760
  N     7.566883  6.936209  4.458674
  N     7.186941 10.595579  4.216797
  S     6.718308  6.356353  3.112752
  S     6.431868 10.100139  2.850488
  S     9.537707  6.762430  0.064674
  S     9.384691 10.578993 -0.013233
  S     9.145319  7.359678  4.190157
  S     8.690950 11.255011  3.998438
