16  
    
  C     4.520675  5.059090  1.817598
  C     4.566347  8.525863  1.425810
  C     3.305234  4.658376  1.113234
  C     3.407538  8.000728  0.796234
  N     5.491315  5.386059  0.971733
  N     5.667485  8.544503  0.665819
  N     3.453306  4.463427 -0.219959
  N     3.503213  7.861632 -0.530214
  N     2.786575  4.695343  3.687937
  N     2.748609  8.483460  3.239317
  S     1.953428  4.500004  2.245666
  S     2.031865  7.931947  1.848639
  S     5.005481  5.006381 -0.539371
  S     5.163623  8.112657 -0.832830
  S     4.358440  5.351152  3.512447
  S     4.361887  8.906845  3.113567
