16  
    
  C     9.064410  7.148977  2.253910
  C     9.049973 10.615865  2.369958
  C     7.822962  6.625677  1.642382
  C     7.791504 10.148128  1.764779
  N    10.072986  7.214523  1.391449
  N    10.047027 10.739976  1.485824
  N     7.906155  6.307819  0.366375
  N     7.948211  9.828496  0.466004
  N     7.314171  6.735087  4.185462
  N     7.207662 10.546582  4.251617
  S     6.566395  6.336286  2.736214
  S     6.450188 10.092385  2.829091
  S     9.471488  6.668652 -0.109186
  S     9.436124 10.323422  0.024513
  S     8.862096  7.207381  4.049459
  S     8.843045 10.861835  4.110929
