16  
    
  C     9.318252  6.724232  2.432549
  C     9.206752 10.714380  2.938805
  C     8.121294  6.323040  1.767399
  C     7.972897 10.502772  2.295450
  N    10.351289  6.685036  1.571417
  N    10.249669 10.604630  2.117671
  N     8.218002  5.839395  0.525532
  N     8.028292 10.057420  1.020621
  N     7.355681  6.880445  4.169456
  N     7.391923 10.846153  4.778255
  S     6.714155  6.313801  2.759926
  S     6.585764 10.697264  3.342507
  S     9.843303  5.993712  0.138917
  S     9.726952 10.021279  0.683676
  S     8.975509  7.233455  4.125441
  S     9.035046 11.098749  4.651887
