16  
    
  C    11.899571  8.524690  3.337347
  C    11.582546 12.006051  3.518870
  C    10.658588  8.354435  2.655510
  C    10.431274 11.385894  2.837391
  N    12.949527  8.547879  2.552502
  N    12.524151 12.351411  2.638503
  N    10.753891  8.203914  1.361096
  N    10.450682 11.365597  1.491509
  N    10.059367  8.263588  5.189573
  N     9.808180 11.637791  5.249546
  S     9.274784  8.196918  3.691100
  S     9.081848 11.281556  3.844562
  S    12.372951  8.417418  0.964397
  S    12.039148 11.912182  1.147584
  S    11.668267  8.546277  5.055505
  S    11.401608 12.013580  5.319029
