16  
    
  C    10.310740  7.699165  2.630705
  C    10.554473 11.412867  2.932780
  C     9.057808  7.160452  2.037727
  C     9.351949 11.247914  2.128336
  N    11.297438  7.796786  1.770202
  N    11.663821 11.329737  2.204814
  N     9.103397  6.890910  0.750142
  N     9.600558 11.153006  0.814071
  N     8.446043  7.702348  4.445060
  N     8.546873 11.419592  4.546604
  S     7.694458  7.062286  3.135739
  S     7.908204 11.417385  3.042135
  S    10.639360  7.312189  0.300169
  S    11.197565 11.200901  0.595410
  S    10.078393  8.067438  4.297921
  S    10.186478 11.607068  4.584423
