16  
    
  C    11.369597  8.510087  3.377901
  C    11.413660 12.414166  3.318352
  C    10.238961  7.858628  2.760753
  C    10.274475 11.808027  2.684162
  N    12.407132  8.655062  2.551253
  N    12.431028 12.537286  2.450830
  N    10.394169  7.614848  1.447903
  N    10.508190 11.280695  1.472639
  N     9.504873  8.564241  5.194155
  N     9.577462 12.443423  5.161252
  S     8.896770  7.734519  3.853680
  S     8.932558 11.605813  3.778984
  S    11.905450  8.063535  1.086515
  S    11.990743 11.877616  1.056450
  S    11.043651  9.100631  4.997266
  S    11.276360 12.738304  5.037296
