16  
    
  C     9.012276  7.225291  2.557806
  C     8.809469 11.139820  2.333669
  C     7.813875  6.583473  2.043580
  C     7.672497 10.478385  1.742087
  N     9.978139  7.299222  1.648659
  N     9.761931 11.440162  1.465185
  N     7.964761  6.199618  0.771711
  N     7.849116 10.152174  0.436542
  N     7.493022  7.009077  4.648829
  N     7.192651 10.649811  4.264656
  S     6.661210  6.300845  3.409252
  S     6.414491 10.119210  2.872936
  S     9.479682  6.654158  0.262049
  S     9.349357 10.893259  0.021186
  S     9.082853  7.429945  4.273055
  S     8.700813 11.240344  4.035742
