16  
    
  C     4.896882  4.785524  1.621436
  C     4.856728  8.729783  1.776605
  C     3.548368  4.597249  1.162250
  C     3.550114  8.365483  1.278283
  N     5.833807  4.944748  0.704751
  N     5.748095  8.973263  0.831343
  N     3.469232  4.653108 -0.175022
  N     3.443111  8.220836 -0.029727
  N     3.599234  4.704366  3.749695
  N     3.272482  8.682184  3.810205
  S     2.523543  4.422876  2.552715
  S     2.325293  8.295945  2.496145
  S     5.032820  4.820139 -0.719159
  S     4.963757  8.613201 -0.645898
  S     5.155322  4.780560  3.306759
  S     4.912840  8.986266  3.518135
