16  
    
  C     5.798046  5.551015  1.952445
  C     5.915284  9.090443  2.071942
  C     4.510496  5.382268  1.264476
  C     4.699831  8.687279  1.374380
  N     6.875882  5.585662  1.138722
  N     7.011380  9.094234  1.286908
  N     4.649366  4.974883  0.001394
  N     4.840950  8.466016  0.065981
  N     3.928745  5.595696  3.825236
  N     4.043321  8.926945  3.895672
  S     3.143798  5.347562  2.377337
  S     3.255171  8.637225  2.386821
  S     6.299143  5.096782 -0.354114
  S     6.389734  8.723519 -0.268765
  S     5.616293  5.809927  3.632352
  S     5.702127  9.096367  3.782195
