16  
    
  C     4.841137  4.857822  1.899547
  C     4.638433  8.948526  1.719952
  C     3.571002  4.602377  1.245918
  C     3.420369  8.504580  1.151443
  N     5.828303  5.023623  1.037267
  N     5.569542  9.256143  0.831681
  N     3.589477  4.536149 -0.082793
  N     3.401222  8.577533 -0.176860
  N     3.099544  4.613647  3.796888
  N     3.136740  8.357138  3.711425
  S     2.281092  4.422986  2.358865
  S     2.219283  8.119387  2.347683
  S     5.215011  4.709512 -0.487819
  S     4.901257  8.988947 -0.642528
  S     4.767938  4.937787  3.607520
  S     4.747843  8.839702  3.450945
