16  
    
  C     7.631818  6.253563  2.200074
  C     7.854479 10.090399  2.417694
  C     6.380774  5.848024  1.624748
  C     6.718560  9.411986  1.809610
  N     8.566990  6.460994  1.292364
  N     8.756603 10.404923  1.494070
  N     6.446133  5.665708  0.318454
  N     6.768455  9.214351  0.525195
  N     5.927668  5.842240  4.099719
  N     6.136137  9.637673  4.263976
  S     5.128524  5.431698  2.736258
  S     5.423585  9.115997  2.886915
  S     7.967612  6.025956 -0.184875
  S     8.241661  9.929980  0.033847
  S     7.543419  6.348350  3.990106
  S     7.717575 10.159401  4.176910
