16  
    
  C     5.250872  5.446260  1.765414
  C     5.120775  8.866770  1.315830
  C     3.965411  4.990019  1.316000
  C     3.832623  8.425602  0.775694
  N     6.212794  5.365713  0.844444
  N     6.061497  8.915355  0.391877
  N     3.882479  4.682780  0.023485
  N     3.914734  8.102597 -0.505929
  N     3.667127  5.423074  3.822240
  N     3.489157  8.914934  3.264810
  S     2.715509  5.257706  2.437778
  S     2.597156  8.307758  2.001968
  S     5.403309  4.904552 -0.583645
  S     5.450103  8.441496 -1.028887
  S     5.189921  5.960963  3.458471
  S     5.122458  9.253828  2.985644
