16  
    
  C     5.545592  5.370104  1.806914
  C     5.141175  8.967471  1.697919
  C     4.221205  5.067383  1.266883
  C     3.893740  8.594986  1.026901
  N     6.515672  5.429533  0.878137
  N     6.164651  9.173160  0.870082
  N     4.137572  5.077420 -0.064113
  N     4.087892  8.357423 -0.269781
  N     3.837531  5.218769  3.852397
  N     3.348620  8.671723  3.536479
  S     2.942150  5.182636  2.436539
  S     2.586339  8.246819  2.109380
  S     5.697311  5.199290 -0.610476
  S     5.685981  8.695778 -0.633474
  S     5.519943  5.382812  3.540939
  S     4.973721  9.142097  3.383474
