16  
    
  C     9.020681  7.110391  2.648145
  C     8.845190 11.104068  2.347463
  C     7.774194  6.484613  2.170943
  C     7.721380 10.461929  1.709721
  N     9.927963  7.396915  1.725185
  N     9.782619 11.536956  1.508077
  N     7.827722  6.127634  0.899548
  N     7.835026 10.388538  0.356755
  N     7.455217  6.886563  4.663187
  N     7.119614 10.774457  4.207591
  S     6.571225  6.314059  3.401524
  S     6.429218 10.035287  2.867217
  S     9.311563  6.675854  0.341983
  S     9.300753 11.004767  0.001739
  S     8.966702  7.583269  4.298124
  S     8.735714 11.185137  4.086691
