16  
    
  C     6.601152  5.793563  2.050907
  C     6.551207  9.400437  1.884173
  C     5.362685  5.323986  1.457435
  C     5.385009  8.895336  1.245250
  N     7.628062  5.922127  1.214446
  N     7.557400  9.703861  1.058843
  N     5.433733  5.228204  0.134376
  N     5.492555  8.804169 -0.060956
  N     4.874354  5.822719  3.985313
  N     4.739679  9.072156  3.711971
  S     3.988264  5.228318  2.627644
  S     4.084060  8.507050  2.336217
  S     6.985378  5.610980 -0.299438
  S     7.070777  9.247426 -0.425150
  S     6.497303  6.081286  3.767695
  S     6.340692  9.534965  3.596005
