16  
    
  C     9.384680  6.680026  2.426355
  C     9.421170 10.544828  2.835808
  C     8.167839  6.338864  1.720441
  C     8.134852 10.428065  2.127162
  N    10.426740  6.793172  1.592649
  N    10.458595 10.343185  2.040341
  N     8.290147  6.042510  0.444953
  N     8.235286 10.004596  0.867971
  N     7.378219  6.651538  4.108846
  N     7.585577 11.009650  4.583893
  S     6.703657  6.205166  2.633447
  S     6.781477 10.642932  3.174079
  S     9.882286  6.390028  0.041247
  S     9.902515  9.960243  0.524166
  S     8.997632  6.896998  4.118229
  S     9.230464 10.919325  4.486324
