16  
    
  C     9.296045  6.625799  2.401378
  C     9.361141 10.570260  2.835702
  C     8.119177  6.187598  1.653904
  C     8.072021 10.362518  2.128690
  N    10.408476  6.644208  1.655882
  N    10.425385 10.303534  2.077482
  N     8.328450  6.088582  0.329000
  N     8.252497 10.071193  0.821736
  N     7.353757  6.831119  4.095617
  N     7.477164 10.953874  4.600809
  S     6.678208  6.201432  2.740317
  S     6.711879 10.719371  3.161052
  S     9.939289  6.330471  0.093227
  S     9.846158  9.912330  0.557461
  S     9.019031  7.020808  4.090681
  S     9.145764 10.991545  4.528347
