16  
    
  C     6.602274  5.950704  2.113047
  C     6.437996  9.384845  1.918710
  C     5.436529  5.355273  1.459863
  C     5.236641  8.928488  1.214361
  N     7.654733  6.013802  1.290169
  N     7.482010  9.584354  1.112542
  N     5.545950  5.226447  0.125762
  N     5.484999  8.708828 -0.073212
  N     4.845995  5.544411  3.980425
  N     4.631984  9.028628  3.652299
  S     4.059536  5.136114  2.530122
  S     3.950764  8.477735  2.285754
  S     7.093741  5.605811 -0.237196
  S     7.062738  9.224613 -0.405193
  S     6.405859  6.080302  3.832714
  S     6.227081  9.468678  3.660552
