16  
    
  C     9.237494  7.155994  2.571759
  C     8.891750 11.084488  2.366817
  C     8.014338  6.514437  2.062312
  C     7.744131 10.378227  1.745236
  N    10.146759  7.236229  1.600485
  N     9.849949 11.326107  1.480214
  N     7.950293  6.301221  0.752856
  N     7.821868 10.149346  0.470753
  N     7.544276  7.014071  4.481401
  N     7.219166 10.474131  4.244013
  S     6.753664  6.306771  3.159806
  S     6.407339 10.156129  2.798640
  S     9.437817  6.644783  0.194367
  S     9.332539 10.666326 -0.024940
  S     9.141869  7.372474  4.291511
  S     8.694998 11.319668  4.067009
