16  
    
  C     9.210798  6.822096  2.379861
  C     9.128407 10.897425  3.021212
  C     8.011130  6.268544  1.772528
  C     7.927979 10.309666  2.409995
  N    10.250270  6.828453  1.557966
  N    10.123198 11.049948  2.139352
  N     8.120299  5.884922  0.491034
  N     8.037860 10.104047  1.084660
  N     7.391812  7.058658  4.186126
  N     7.343069 10.900001  4.909250
  S     6.675710  6.307086  2.907602
  S     6.564298 10.501739  3.501125
  S     9.713189  6.138361  0.093872
  S     9.531751 10.510424  0.624565
  S     9.019128  7.261361  4.075201
  S     8.983499 11.290632  4.709030
