16  
    
  C    11.752592  8.748656  3.522981
  C    11.556212 11.977690  3.311849
  C    10.556767  8.418277  2.833009
  C    10.396413 11.594134  2.500159
  N    12.835204  8.787724  2.754594
  N    12.630941 12.219718  2.612982
  N    10.740784  8.125660  1.525229
  N    10.600517 11.580334  1.181253
  N     9.928292  8.554477  5.336893
  N     9.693427 11.891622  5.058812
  S     9.184875  8.216914  3.907754
  S     8.988025 11.571157  3.494711
  S    12.373424  8.442114  1.186393
  S    12.317521 11.896836  1.060398
  S    11.576928  8.925054  5.221208
  S    11.363035 12.111706  5.039183
