16  
    
  C     8.339609  6.900352  2.395251
  C     8.878089 10.290487  2.758849
  C     7.223732  6.240181  1.653245
  C     7.581461  9.966882  2.109913
  N     9.508323  7.029941  1.764585
  N     9.935769 10.388086  1.982558
  N     7.513119  6.111547  0.350929
  N     7.734368  9.885364  0.772960
  N     6.602687  6.357638  4.198757
  N     7.083320 10.275038  4.656086
  S     5.914678  5.946802  2.767730
  S     6.254780  9.914604  3.260668
  S     9.158388  6.596039  0.182426
  S     9.306889 10.247513  0.407701
  S     8.162719  6.906158  4.082671
  S     8.748543 10.545074  4.508509
