16  
    
  C    12.341878  9.117934  3.668600
  C    12.554942 12.816511  3.507315
  C    11.227818  8.459477  3.001783
  C    11.277608 12.445920  2.932263
  N    13.331032  9.582560  2.887202
  N    13.509401 13.079440  2.617356
  N    11.401346  8.260462  1.687853
  N    11.326620 12.304231  1.611622
  N    10.642880  8.416814  5.429987
  N    10.850486 12.729979  5.466945
  S     9.952594  7.950128  4.052440
  S    10.045565 12.227743  4.109849
  S    12.847045  9.128174  1.358496
  S    12.875542 12.568852  1.153292
  S    12.057429  9.217116  5.375677
  S    12.460097 12.864485  5.288309
