16  
    
  C     5.813615  5.586540  2.141384
  C     5.899033  9.083422  1.812077
  C     4.552642  5.365978  1.518286
  C     4.693806  8.876634  1.087583
  N     6.888539  5.463518  1.350635
  N     6.981493  9.043765  1.038970
  N     4.700476  5.296587  0.197282
  N     4.856571  8.645528 -0.203754
  N     4.020933  5.828234  3.951431
  N     4.034551  9.261607  3.500231
  S     3.161478  5.594503  2.587987
  S     3.263630  8.798315  2.106877
  S     6.307846  5.291001 -0.188226
  S     6.505722  8.806778 -0.493445
  S     5.704475  5.843923  3.853564
  S     5.616562  9.386662  3.469329
