16  
    
  C     7.744187  6.574133  2.456038
  C     7.799045 10.052143  2.090766
  C     6.506134  6.176165  1.769366
  C     6.521345  9.868561  1.384818
  N     8.827451  6.682159  1.663316
  N     8.899841 10.013000  1.314883
  N     6.714713  5.834973  0.474344
  N     6.684834  9.781528  0.046851
  N     5.838166  6.740927  4.205466
  N     6.070502 10.188624  3.960820
  S     5.100373  6.144547  2.890103
  S     5.199118  9.945151  2.605280
  S     8.333599  6.155781  0.167841
  S     8.285725  9.810708 -0.261525
  S     7.498123  7.070650  4.089697
  S     7.693509 10.470479  3.719671
