16  
    
  C     6.674173  5.642501  1.973742
  C     6.638571  9.520949  2.051688
  C     5.386205  5.515978  1.355209
  C     5.389985  9.080926  1.509934
  N     7.664548  5.831495  1.118781
  N     7.608208  9.606258  1.155954
  N     5.442392  5.345161  0.031950
  N     5.385797  8.941778  0.163114
  N     4.954059  5.827224  3.910685
  N     5.102801  9.340973  4.167055
  S     4.163333  5.402133  2.539002
  S     4.165622  9.060600  2.786896
  S     7.027783  5.607353 -0.391857
  S     6.944891  9.389052 -0.297089
  S     6.615328  5.944233  3.687442
  S     6.622457  9.818601  3.756906
