16  
    
  C     9.414320  7.039659  2.988813
  C     9.600312 10.804404  2.618269
  C     8.281436  6.457075  2.281676
  C     8.364449 10.292559  1.982894
  N    10.406477  7.440848  2.169868
  N    10.578483 11.126067  1.751895
  N     8.392051  6.516541  0.957886
  N     8.464639 10.326611  0.651593
  N     7.711028  6.438598  4.750952
  N     7.948101 10.352706  4.496769
  S     6.988532  6.004908  3.302642
  S     7.137199  9.959457  3.119895
  S     9.889877  7.141977  0.628682
  S     9.971395 10.852147  0.221295
  S     9.245860  6.938756  4.713981
  S     9.519254 10.886556  4.348360
