16  
    
  C    11.889957  8.569302  3.228967
  C    11.409733 12.285476  3.463973
  C    10.596557  8.268749  2.611971
  C    10.271380 11.690971  2.828388
  N    12.840475  8.816561  2.315094
  N    12.470449 12.417712  2.633278
  N    10.631642  8.279133  1.280622
  N    10.349160 11.543676  1.511973
  N    10.228194  7.977949  5.119397
  N     9.662376 11.617919  5.210539
  S     9.332889  7.903166  3.761359
  S     8.962219 11.122907  3.835934
  S    12.182945  8.583014  0.789690
  S    11.912257 11.989965  1.159220
  S    11.836998  8.457961  4.953764
  S    11.122944 12.270074  5.183177
