16  
    
  C     5.809275  5.520568  1.977743
  C     5.902336  9.074405  2.048237
  C     4.514073  5.326325  1.301648
  C     4.676567  8.658108  1.348863
  N     6.875375  5.586474  1.177723
  N     6.981318  9.102130  1.269319
  N     4.651571  5.010156  0.018217
  N     4.803732  8.461163  0.039197
  N     3.969949  5.587905  3.850155
  N     4.015444  8.956534  3.820279
  S     3.116545  5.401194  2.368938
  S     3.278472  8.684659  2.367974
  S     6.294204  5.127274 -0.346673
  S     6.412959  8.743459 -0.298236
  S     5.626427  5.847919  3.712211
  S     5.677243  9.123202  3.765870
