16  
    
  C     8.165379  6.510233  2.649064
  C     8.662262 10.483173  2.768063
  C     7.047297  6.141083  1.907330
  C     7.477651 10.061065  2.130288
  N     9.236041  6.813259  1.923347
  N     9.728968 10.616617  1.984562
  N     7.300597  5.908962  0.627585
  N     7.682268  9.733270  0.851792
  N     6.242200  6.343369  4.357382
  N     6.886061 10.323214  4.627216
  S     5.648291  5.829160  2.864832
  S     6.100876  9.958985  3.208165
  S     8.833013  6.479408  0.391285
  S     9.269489 10.135917  0.470579
  S     7.795587  6.801255  4.332753
  S     8.551066 10.574630  4.523608
