16  
    
  C     6.730704  5.903987  2.361788
  C     6.959863  9.721087  2.342937
  C     5.555812  5.290498  1.820982
  C     5.736097  9.309760  1.758544
  N     7.537578  6.322432  1.398469
  N     7.907607  9.932982  1.434555
  N     5.465918  5.166005  0.509090
  N     5.692575  9.203889  0.429928
  N     5.183276  5.511800  4.376546
  N     5.141582  9.736861  4.161661
  S     4.376079  4.916225  3.037156
  S     4.415894  9.167654  2.859258
  S     6.825622  5.923542 -0.057503
  S     7.233477  9.732838 -0.051342
  S     6.778290  6.050059  4.111759
  S     6.768564  9.914683  4.094740
