16  
    
  C     5.571242  5.461508  1.942433
  C     5.445841  8.934761  1.771823
  C     4.324017  4.929813  1.401298
  C     4.306062  8.413622  1.058410
  N     6.475169  5.632121  0.978778
  N     6.494388  9.201035  0.992511
  N     4.306224  4.773655  0.076633
  N     4.517381  8.151344 -0.217676
  N     4.037166  5.096324  4.014324
  N     3.503999  8.869778  3.513927
  S     3.126744  4.701900  2.628092
  S     2.958495  8.105389  2.097254
  S     5.766216  5.289813 -0.485067
  S     6.088016  8.728152 -0.545808
  S     5.705183  5.518933  3.687898
  S     5.135440  9.104895  3.475993
