16  
    
  C     5.078834  5.007393  2.099518
  C     5.169554  8.620847  1.763993
  C     3.843789  4.803675  1.360659
  C     3.983312  8.488512  1.003743
  N     6.165187  5.072115  1.332209
  N     6.272907  8.526966  1.034803
  N     3.999812  4.668874  0.048308
  N     4.183395  8.321722 -0.298779
  N     3.325901  5.386905  3.840160
  N     3.198948  8.587645  3.486381
  S     2.510442  5.128223  2.416039
  S     2.500347  8.433743  1.976127
  S     5.664019  4.779843 -0.220788
  S     5.830078  8.293481 -0.531115
  S     4.911989  5.592570  3.693405
  S     4.873322  8.818707  3.507836
