16  
    
  C     9.571836  7.338310  2.907742
  C     9.709912 10.959738  2.798545
  C     8.484500  6.853669  2.088338
  C     8.479108 10.479802  2.163635
  N    10.673892  7.625562  2.244293
  N    10.685396 11.175410  1.949311
  N     8.757314  6.791184  0.785368
  N     8.518140 10.402293  0.841608
  N     7.806173  6.738309  4.678337
  N     7.906793 10.733616  4.660514
  S     7.146162  6.334416  3.143318
  S     7.130729 10.232847  3.256943
  S    10.335833  7.413888  0.630634
  S    10.085227 10.910975  0.443100
  S     9.297778  7.470440  4.608139
  S     9.525641 11.085773  4.519423
