16  
    
  C    10.994352  8.116116  3.082536
  C    11.537735 11.744563  3.192334
  C     9.819057  7.481312  2.636047
  C    10.334081 11.443369  2.454120
  N    11.939848  8.242180  2.146127
  N    12.648722 11.768585  2.441720
  N     9.891632  7.104196  1.364431
  N    10.529044 11.280357  1.143870
  N     9.464005  8.072145  5.120955
  N     9.587564 11.416245  4.951985
  S     8.631806  7.378328  3.844347
  S     8.897429 11.242974  3.409540
  S    11.319233  7.644305  0.788766
  S    12.127106 11.387004  0.904315
  S    11.036904  8.454977  4.788680
  S    11.232404 11.905832  4.885374
