16  
    
  C     8.967551  7.216096  2.584267
  C     8.800747 11.144936  2.335078
  C     7.791887  6.461710  2.135916
  C     7.682696 10.416753  1.703420
  N     9.983865  7.366584  1.731114
  N     9.793511 11.536799  1.546227
  N     7.864485  6.166034  0.836177
  N     7.851194 10.317105  0.398020
  N     7.519665  6.960894  4.681192
  N     7.110458 10.741442  4.252690
  S     6.577282  6.302562  3.421649
  S     6.413787 10.065768  2.889731
  S     9.397356  6.665819  0.306120
  S     9.323237 10.957834 -0.014338
  S     9.014951  7.512949  4.272458
  S     8.737667 11.201063  4.050989
