16  
    
  C    11.056577  8.185123  3.108364
  C    11.518197 11.685286  3.184634
  C     9.826236  7.521174  2.634806
  C    10.274395 11.498208  2.488014
  N    12.007572  8.281846  2.176028
  N    12.637028 11.815993  2.471318
  N     9.899387  7.079776  1.369467
  N    10.482853 11.348727  1.208090
  N     9.497415  8.084990  5.174762
  N     9.623770 11.421560  4.944849
  S     8.606351  7.407033  3.852124
  S     8.858438 11.293241  3.469187
  S    11.351237  7.653611  0.782578
  S    12.095372 11.340968  0.885540
  S    11.081340  8.450240  4.780543
  S    11.238650 11.882117  4.891226
