16  
    
  C     9.031428  7.094018  2.241810
  C     9.021649 10.586715  2.375489
  C     7.798535  6.642504  1.612491
  C     7.779392 10.140537  1.751577
  N    10.063040  7.235240  1.416127
  N    10.061152 10.743710  1.527165
  N     7.895185  6.298864  0.340311
  N     7.950045  9.812869  0.477204
  N     7.294858  6.731392  4.181265
  N     7.224472 10.505731  4.249841
  S     6.540967  6.330319  2.735745
  S     6.443814 10.097464  2.840351
  S     9.465904  6.679603 -0.114763
  S     9.433983 10.302423  0.026272
  S     8.838076  7.209298  4.024263
  S     8.863804 10.844417  4.118155
