16  
    
  C     9.794464  7.431269  2.453033
  C    10.408445 11.206783  2.572838
  C     8.597001  6.859328  1.894125
  C     9.164695 10.897669  1.973777
  N    10.875696  7.536198  1.667963
  N    11.444439 11.228357  1.746965
  N     8.733700  6.603694  0.593077
  N     9.215256 10.889045  0.659379
  N     8.286197  7.186167  4.451886
  N     8.629165 11.098507  4.477916
  S     7.451098  6.557711  3.213660
  S     7.804681 10.895583  3.099657
  S    10.324334  7.063944  0.175212
  S    10.804023 11.093108  0.216469
  S     9.774977  7.849704  4.154266
  S    10.282647 11.360526  4.349871
