16  
    
  C    12.372453  8.997317  3.426578
  C    12.326497 12.848930  3.414961
  C    11.299034  8.535912  2.605079
  C    11.103264 12.234213  2.982383
  N    13.367123  9.469166  2.719999
  N    13.347562 12.862392  2.556942
  N    11.545067  8.613840  1.288413
  N    11.093724 12.024451  1.671935
  N    10.615480  8.450072  5.184722
  N    10.745774 12.677511  5.442637
  S     9.957152  8.005119  3.669654
  S    10.010772 11.866755  4.239157
  S    13.029291  9.235024  1.110103
  S    12.623988 12.473060  1.101519
  S    12.065131  9.226365  5.118518
  S    12.367410 13.054755  5.144644
