16  
    
  C     6.716152  6.170027  2.372224
  C     7.272662  9.580964  2.112868
  C     5.748327  5.333626  1.686585
  C     6.011450  9.355934  1.486586
  N     7.701656  6.580852  1.571715
  N     8.268922  9.662402  1.241097
  N     5.845643  5.304168  0.346260
  N     6.011828  9.201883  0.164179
  N     5.213447  5.288148  4.237915
  N     5.457395  9.747870  4.002211
  S     4.489506  4.806843  2.782240
  S     4.688839  9.405739  2.610888
  S     7.213887  6.200313  0.024681
  S     7.652895  9.542000 -0.256069
  S     6.574240  6.229682  4.114746
  S     7.169098  9.775972  3.819487
