16  
    
  C     4.224276  4.795959  1.400051
  C     4.278543  8.383280  1.298917
  C     2.981889  4.519704  0.727661
  C     3.070741  8.013777  0.684486
  N     5.247389  5.058253  0.624159
  N     5.338617  8.407495  0.496337
  N     3.120065  4.454411 -0.610426
  N     3.152724  7.788439 -0.623060
  N     2.521089  4.850837  3.285596
  N     2.545861  8.261018  3.232964
  S     1.603158  4.546660  1.915117
  S     1.742550  7.819999  1.832085
  S     4.786355  4.719347 -0.955651
  S     4.760555  8.010574 -1.042794
  S     4.140318  4.997879  3.076246
  S     4.141064  8.654867  3.059899
