16  
    
  C     7.874935  6.448113  2.234475
  C     8.115955 10.537148  2.169705
  C     6.681755  5.904021  1.543009
  C     6.892631  9.957858  1.606095
  N     8.905427  6.581775  1.422283
  N     9.050125 10.592394  1.223749
  N     6.773484  5.876387  0.222751
  N     6.875402  9.706902  0.321439
  N     5.948731  6.216270  4.018964
  N     6.461884 10.262386  4.125674
  S     5.375474  5.616455  2.606551
  S     5.673324  9.688121  2.776446
  S     8.407822  6.334122 -0.135698
  S     8.392623 10.207567 -0.246174
  S     7.623338  6.424129  3.972892
  S     7.912971 10.966371  3.854338
