16  
    
  C    11.080167  8.175168  2.941550
  C    10.811182 11.951577  3.056860
  C     9.881195  7.678372  2.356212
  C     9.686895 11.281475  2.421247
  N    12.087514  8.453610  2.113147
  N    11.850112 12.108561  2.234680
  N     9.929777  7.566410  1.021591
  N     9.826272 11.071604  1.106309
  N     9.357270  7.795362  4.876652
  N     9.012234 11.593383  4.922802
  S     8.519752  7.493209  3.455162
  S     8.315456 11.073348  3.458483
  S    11.472523  7.953159  0.567890
  S    11.349268 11.714679  0.686580
  S    10.860033  8.527716  4.655752
  S    10.604244 12.128033  4.773888
