16  
    
  C     8.610451  7.273421  2.666702
  C     8.909677 11.086435  2.228808
  C     7.469478  6.641714  2.129769
  C     7.769971 10.596577  1.535776
  N     9.572805  7.527140  1.789838
  N     9.928291 11.375408  1.439188
  N     7.545334  6.373281  0.824956
  N     7.888380 10.575648  0.188954
  N     7.083477  6.971894  4.636336
  N     7.255025 10.397987  4.062949
  S     6.366897  6.178895  3.384695
  S     6.474542 10.147035  2.604496
  S     9.042210  6.912773  0.379244
  S     9.436091 11.136445 -0.071544
  S     8.671978  7.474333  4.399128
  S     8.790565 11.044016  3.957452
