16  
    
  C     5.832493  5.367112  1.776713
  C     5.932136  8.896377  2.119977
  C     4.534754  5.139566  1.142962
  C     4.692910  8.601003  1.426005
  N     6.827399  5.461562  0.889909
  N     7.006166  8.968716  1.340413
  N     4.650916  4.874745 -0.156916
  N     4.856959  8.546340  0.094677
  N     4.006272  5.431664  3.619566
  N     4.145390  8.732838  4.025956
  S     3.220555  4.991747  2.229984
  S     3.377542  8.532544  2.538863
  S     6.235690  4.987522 -0.583616
  S     6.459228  8.760707 -0.194220
  S     5.745585  5.662482  3.506827
  S     5.795627  9.075159  3.854332
