16  
    
  C    11.085309  8.264842  2.938122
  C    10.807779 11.640204  3.008099
  C     9.976115  7.469232  2.484506
  C     9.569921 11.288412  2.321934
  N    11.938466  8.620405  1.949534
  N    11.824071 11.889652  2.180782
  N    10.008515  7.213095  1.166210
  N     9.754973 11.140821  1.000635
  N     9.521336  7.974146  4.989644
  N     9.182465 11.240963  4.854516
  S     8.733486  7.213047  3.693116
  S     8.351796 10.906983  3.492128
  S    11.365809  7.908729  0.568282
  S    11.282599 11.635042  0.615438
  S    10.961604  8.698259  4.667620
  S    10.707246 11.867182  4.729929
