16  
    
  C     5.973993  4.804911  1.801647
  C     5.821559  9.203310  1.966515
  C     4.814823  4.523267  1.024456
  C     4.681092  8.608039  1.361225
  N     7.057442  4.949189  1.038104
  N     6.865225  9.334050  1.155839
  N     5.040378  4.413852 -0.279687
  N     4.751071  8.471775  0.032515
  N     3.935292  4.909939  3.398246
  N     4.129043  8.954183  3.831838
  S     3.340571  4.237816  1.985541
  S     3.400402  8.378234  2.521009
  S     6.610353  4.817698 -0.552639
  S     6.317189  8.949985 -0.324637
  S     5.575330  5.070937  3.547692
  S     5.641831  9.581624  3.633709
