16  
    
  C     5.627887  5.262984  1.936325
  C     5.704128  9.022492  1.987652
  C     4.551695  4.474490  1.359144
  C     4.505882  8.529376  1.407861
  N     6.654543  5.401643  1.092817
  N     6.624379  9.396770  1.099617
  N     4.692189  4.289455  0.035283
  N     4.524816  8.350930  0.080797
  N     3.944477  4.978844  3.816511
  N     3.995957  8.779328  3.945051
  S     3.239650  4.189331  2.540352
  S     3.318013  8.057304  2.569107
  S     6.140337  4.964196 -0.395628
  S     5.985238  9.002945 -0.379609
  S     5.497334  5.605552  3.663564
  S     5.570218  9.204802  3.723312
