16  
    
  C     8.349065  6.636587  2.279684
  C     8.140191 10.131754  2.627823
  C     7.119035  6.100893  1.671894
  C     7.048960  9.462449  1.937617
  N     9.373147  6.707475  1.460280
  N     9.171617 10.402200  1.831006
  N     7.259472  5.781242  0.397925
  N     7.296324  9.238701  0.655267
  N     6.671191  6.468770  4.274524
  N     6.255218  9.794304  4.325556
  S     5.777099  6.058852  2.851689
  S     5.653952  9.159011  2.914147
  S     8.902576  6.140398 -0.022417
  S     8.845499  9.877932  0.330726
  S     8.167298  7.093700  3.924009
  S     7.781860 10.455022  4.264547
