16  
    
  C     9.636659  7.269870  3.019079
  C     9.633218 10.864343  2.739669
  C     8.512875  6.739988  2.268880
  C     8.349833 10.479557  2.075169
  N    10.609332  7.708231  2.224670
  N    10.572908 11.165774  1.834128
  N     8.664843  6.732808  0.962348
  N     8.427671 10.356481  0.750692
  N     7.721716  6.594933  4.658968
  N     7.892536 10.599090  4.644961
  S     7.163145  6.152203  3.109380
  S     7.097725 10.223286  3.207201
  S    10.174860  7.299962  0.670454
  S     9.993705 10.824509  0.352767
  S     9.220239  7.264341  4.701003
  S     9.522455 10.988947  4.445522
