16  
    
  C     5.251418  5.435227  1.776940
  C     5.113370  8.870191  1.310751
  C     3.949221  5.002954  1.305867
  C     3.837358  8.402274  0.785555
  N     6.209794  5.360158  0.855330
  N     6.059445  8.908430  0.394277
  N     3.889227  4.655294  0.032816
  N     3.917764  8.102008 -0.503024
  N     3.658647  5.433323  3.809638
  N     3.487599  8.911156  3.259968
  S     2.702131  5.263941  2.444584
  S     2.591919  8.312536  2.003505
  S     5.402050  4.899185 -0.572003
  S     5.436385  8.443365 -1.026764
  S     5.180683  5.956503  3.460511
  S     5.126001  9.241699  2.989744
