16  
    
  C    10.506207  7.651480  3.019515
  C    10.607283 11.769894  3.045130
  C     9.231291  7.292886  2.451784
  C     9.384750 11.030106  2.670807
  N    11.490662  7.874039  2.163826
  N    11.459154 11.992555  2.062517
  N     9.260085  7.284602  1.143444
  N     9.243716 10.899446  1.355842
  N     8.724471  7.333950  5.036085
  N     9.235284 11.472683  5.218531
  S     7.964304  6.967656  3.568206
  S     8.266184 10.872144  3.978573
  S    10.745968  7.771446  0.655202
  S    10.729185 11.462865  0.683183
  S    10.415330  7.648708  4.782672
  S    10.615908 12.230610  4.759807
