16  
    
  C    12.449485  9.202272  3.436257
  C    12.506235 12.630394  3.449031
  C    11.140448  8.747841  2.948468
  C    11.285602 12.173844  2.835697
  N    13.447900  9.022761  2.562032
  N    13.436128 12.843826  2.546671
  N    11.144151  8.359814  1.670980
  N    11.306488 11.931922  1.532747
  N    10.737420  9.256100  5.337281
  N    10.657926 12.460872  5.321347
  S     9.879145  8.647672  4.085994
  S     9.955243 11.994461  3.902731
  S    12.691465  8.490575  1.116347
  S    12.812026 12.271438  1.041586
  S    12.339526  9.524492  5.202316
  S    12.126861 13.176949  5.052539
