16  
    
  C     9.811598  7.721744  2.799571
  C    10.638935 11.497359  3.146016
  C     8.787311  7.066203  2.019539
  C     9.378854 11.216342  2.412361
  N    10.900778  8.065098  2.091225
  N    11.731173 11.593260  2.381071
  N     9.125168  6.914962  0.727555
  N     9.554729 10.957419  1.118481
  N     7.949976  7.228786  4.387293
  N     8.716145 11.365689  4.922024
  S     7.398117  6.640973  2.974668
  S     7.999782 10.961679  3.422700
  S    10.736009  7.485951  0.544242
  S    11.176610 11.238446  0.824493
  S     9.395056  8.012362  4.476279
  S    10.339751 11.795475  4.844724
