16  
    
  C     8.721965  7.220887  2.646729
  C     9.034623 11.024121  2.137473
  C     7.573375  6.588541  2.063645
  C     7.846774 10.586800  1.481160
  N     9.594831  7.651942  1.719038
  N    10.025896 11.296334  1.311226
  N     7.585631  6.526286  0.738689
  N     7.916593 10.547237  0.147825
  N     7.058294  6.682589  4.567557
  N     7.245213 10.400141  3.997593
  S     6.258468  6.295521  3.151827
  S     6.478447 10.297993  2.511789
  S     8.971918  7.211879  0.246244
  S     9.532790 10.947901 -0.208187
  S     8.554253  7.368953  4.385325
  S     8.841516 10.896854  3.909646
