16  
    
  C     6.210501  5.668042  2.044739
  C     6.066731  9.224706  1.596054
  C     4.902773  5.419373  1.522837
  C     4.845979  8.736798  1.034800
  N     7.192776  5.653322  1.155109
  N     7.051157  9.290299  0.725722
  N     4.932185  5.205473  0.220124
  N     4.890102  8.488447 -0.262813
  N     4.497850  5.858757  3.986500
  N     4.271371  9.268818  3.382231
  S     3.538803  5.580807  2.608452
  S     3.524136  8.546098  2.117922
  S     6.487543  5.323768 -0.329672
  S     6.405165  8.900751 -0.744031
  S     6.191313  5.956868  3.807988
  S     5.943060  9.395757  3.335656
