16  
    
  C     5.340662  5.415794  1.715399
  C     5.139343  8.977811  1.283001
  C     3.999130  5.107907  1.226626
  C     3.885847  8.465522  0.737673
  N     6.228728  5.480689  0.719977
  N     6.187423  8.949486  0.456501
  N     3.928810  4.868302 -0.087956
  N     3.942162  8.194305 -0.563402
  N     3.720532  5.433472  3.757914
  N     3.472860  8.940818  3.284980
  S     2.782458  5.136508  2.476492
  S     2.696176  8.267348  2.000901
  S     5.459625  4.997578 -0.652034
  S     5.553794  8.409000 -0.988524
  S     5.314456  5.935155  3.408007
  S     5.036640  9.342297  2.974035
