16  
    
  C     5.987351  4.863020  1.744701
  C     5.945621  9.106283  1.982340
  C     4.810373  4.424019  0.987399
  C     4.675601  8.688644  1.342768
  N     7.130445  4.981164  1.030634
  N     6.983284  9.294788  1.148635
  N     4.982492  4.464094 -0.330808
  N     4.836076  8.452355  0.055237
  N     4.011213  4.838807  3.406232
  N     4.160331  8.913670  3.902238
  S     3.379661  4.307581  1.982471
  S     3.339371  8.433317  2.460059
  S     6.613788  4.833036 -0.562013
  S     6.351173  8.904953 -0.387866
  S     5.638477  5.016405  3.429597
  S     5.676555  9.556973  3.628394
