16  
    
  C    10.200139  7.332586  2.621099
  C    10.381484 10.905329  2.742927
  C     8.948324  6.905339  2.020298
  C     9.063248 10.943772  2.076681
  N    11.210128  7.507232  1.770005
  N    11.423491 10.996307  1.933353
  N     9.019136  6.689098  0.727926
  N     9.162089 10.894378  0.775870
  N     8.401226  7.355452  4.522227
  N     8.527777 10.797464  4.592595
  S     7.628091  6.874371  3.136543
  S     7.727212 10.969389  3.163198
  S    10.570208  7.145158  0.254487
  S    10.765265 10.985538  0.332787
  S    10.104875  7.502751  4.378959
  S    10.229475 11.062675  4.482822
