16  
    
  C     7.880622  6.304863  2.152975
  C     8.108408 10.546787  2.209079
  C     6.708339  5.742542  1.541453
  C     6.997554  9.878005  1.582576
  N     8.862977  6.584453  1.289244
  N     9.075250 10.826173  1.338474
  N     6.724622  5.784918  0.208584
  N     7.129066  9.597952  0.317444
  N     6.230764  5.687471  4.048792
  N     6.296798 10.119197  4.015776
  S     5.335082  5.520837  2.623012
  S     5.557937  9.703432  2.591669
  S     8.262712  6.312948 -0.227691
  S     8.590879 10.140081 -0.143341
  S     7.769923  6.314034  3.904390
  S     7.873706 10.659995  3.925711
