16  
    
  C     7.151863  6.115363  2.034468
  C     7.383047  9.757418  2.514770
  C     6.045887  5.483481  1.347489
  C     6.129787  9.448514  1.828292
  N     8.252422  6.225298  1.289472
  N     8.452298  9.721634  1.703548
  N     6.207545  5.221833  0.036276
  N     6.248439  9.191956  0.521717
  N     5.161113  5.769024  3.806585
  N     5.471638  9.615867  4.318745
  S     4.714773  5.032249  2.391276
  S     4.730690  9.586074  2.868857
  S     7.801319  5.656672 -0.248262
  S     7.806100  9.364154  0.163614
  S     6.758458  6.300958  3.717000
  S     7.127452 10.000626  4.201496
