16  
    
  C     9.126428  6.969521  2.685595
  C     9.706172 10.845219  2.780346
  C     7.991462  6.406967  1.961760
  C     8.548307 10.096960  2.166492
  N    10.117869  7.220235  1.861764
  N    10.589393 11.203786  1.864097
  N     8.099334  6.285353  0.659734
  N     8.567296 10.051292  0.858663
  N     7.392109  6.470352  4.443132
  N     8.190071 10.121654  4.683174
  S     6.675369  6.030661  3.026809
  S     7.335275  9.655910  3.312161
  S     9.696525  6.795755  0.340122
  S    10.033220 10.762373  0.386104
  S     9.036858  6.815179  4.373519
  S     9.597224 10.974642  4.480804
