16  
    
  C     4.515117  4.999571  1.717146
  C     4.096644  8.783810  1.653555
  C     3.244169  4.789977  1.105046
  C     3.043743  8.211009  0.806468
  N     5.528376  5.090275  0.879452
  N     5.205934  9.134835  1.009003
  N     3.276808  4.583828 -0.185238
  N     3.309455  8.312089 -0.479869
  N     2.716765  4.923183  3.556710
  N     2.187154  8.107813  3.206559
  S     1.903413  4.696686  2.118716
  S     1.641682  7.694705  1.676931
  S     4.850541  4.805890 -0.650631
  S     4.820735  8.914687 -0.624266
  S     4.372145  5.306926  3.436769
  S     3.873827  8.470892  3.316590
