16  
    
  C    12.045440  8.521838  3.613831
  C    12.103594 11.967133  3.364486
  C    10.870473  8.129487  2.833246
  C    10.880886 11.560457  2.691247
  N    13.177146  8.753159  2.947991
  N    13.122868 12.241188  2.536407
  N    11.122642  8.085620  1.517062
  N    11.087708 11.332795  1.388777
  N    10.138229  8.355893  5.395269
  N    10.321909 11.972581  5.157670
  S     9.450322  7.983949  3.875903
  S     9.477296 11.426668  3.864783
  S    12.755391  8.434342  1.345559
  S    12.543128 11.952762  1.007821
  S    11.751845  8.730304  5.282139
  S    11.932021 12.411325  4.974060
