16  
    
  C     7.117986  6.037420  2.002282
  C     7.325152  9.764111  2.498655
  C     5.973737  5.481572  1.317550
  C     6.105518  9.445840  1.847492
  N     8.201635  6.223963  1.252128
  N     8.415311  9.717287  1.723414
  N     6.209669  5.162524  0.058822
  N     6.240855  9.168402  0.532323
  N     5.210899  5.806716  3.788964
  N     5.519045  9.684224  4.321826
  S     4.695082  5.003904  2.397340
  S     4.685850  9.595483  2.896149
  S     7.772862  5.654161 -0.283753
  S     7.803540  9.374911  0.151849
  S     6.753317  6.327112  3.669584
  S     7.124998 10.013431  4.198653
