16  
    
  C     6.877572  5.612598  1.802057
  C     7.198317 10.011608  2.441247
  C     5.712621  5.145559  1.036217
  C     5.942803  9.504673  1.866460
  N     8.029757  5.782356  1.136167
  N     8.225984 10.142904  1.589233
  N     6.072944  4.717468 -0.166763
  N     6.074059  9.253441  0.567097
  N     4.760198  6.049042  3.266426
  N     5.623579  9.770632  4.405510
  S     4.217158  5.082428  1.969295
  S     4.640817  9.334173  3.059423
  S     7.668469  5.142680 -0.392787
  S     7.621080  9.721504  0.105033
  S     6.392013  6.200354  3.399936
  S     7.149577 10.222092  4.160574
