16  
    
  C     9.957416  7.647934  2.999551
  C    10.593542 11.652284  3.027445
  C     8.836143  7.216909  2.235467
  C     9.377926 11.052546  2.534998
  N    10.998936  7.969771  2.267907
  N    11.502097 11.890489  2.079467
  N     9.001084  7.131830  0.943488
  N     9.344179 10.682600  1.255365
  N     8.114696  7.043979  4.644595
  N     9.032834 11.383329  5.085053
  S     7.430172  6.819536  3.213040
  S     8.140078 10.871183  3.776816
  S    10.598880  7.644752  0.688238
  S    10.845048 11.188277  0.681301
  S     9.658271  7.566775  4.665274
  S    10.543351 11.978276  4.724828
