16  
    
  C     8.316625  6.663179  2.292260
  C     8.140316 10.106802  2.559652
  C     7.065424  6.130207  1.668708
  C     7.014030  9.394172  1.907009
  N     9.333227  6.641890  1.445839
  N     9.172070 10.405127  1.747397
  N     7.237876  5.745304  0.418506
  N     7.251972  9.124483  0.617643
  N     6.520896  6.426631  4.121682
  N     6.214845  9.877829  4.317211
  S     5.745026  6.026231  2.767288
  S     5.625138  9.252908  2.896024
  S     8.753353  6.054683  0.003319
  S     8.625169  9.857481  0.196018
  S     8.107777  7.036598  3.989674
  S     7.806516 10.372464  4.299339
