16  
    
  C     7.914001  6.299216  2.173287
  C     8.118550 10.602256  2.206734
  C     6.679370  5.795258  1.544186
  C     6.964759  9.919743  1.627058
  N     8.863524  6.599154  1.263290
  N     9.075408 10.823471  1.297397
  N     6.701828  5.743190  0.216107
  N     7.116652  9.575284  0.357156
  N     6.188538  5.671731  4.020907
  N     6.314598 10.117366  4.024519
  S     5.380810  5.539769  2.626071
  S     5.595232  9.706133  2.573259
  S     8.259610  6.311693 -0.254012
  S     8.603378 10.166515 -0.139327
  S     7.732389  6.320597  3.912909
  S     7.852879 10.691170  3.928554
