16  
    
  C    12.741082  9.267511  3.354251
  C    12.647198 12.994286  3.538780
  C    11.520943  8.821405  2.774005
  C    11.503052 12.467353  2.849634
  N    13.803771  9.310148  2.532156
  N    13.733222 13.274521  2.829172
  N    11.649957  8.467024  1.474231
  N    11.774156 12.231552  1.575652
  N    10.981463  9.000700  5.286692
  N    10.821561 12.557099  5.296094
  S    10.213563  8.574062  3.831887
  S    10.185908 12.065138  3.867076
  S    13.179948  8.833090  1.067190
  S    13.372221 12.589931  1.275024
  S    12.623836  9.496903  5.098661
  S    12.333250 13.234673  5.257456
