16  
    
  C     6.675655  5.910277  2.183206
  C     6.726751  9.742347  2.258018
  C     5.435710  5.422598  1.615506
  C     5.479705  9.346865  1.713210
  N     7.658336  5.979530  1.296586
  N     7.726480  9.955663  1.400032
  N     5.394135  5.381512  0.265015
  N     5.517180  9.110137  0.395047
  N     5.132501  5.538901  4.207392
  N     5.168823  9.396647  4.294879
  S     4.166238  5.209517  2.861663
  S     4.264301  9.111178  2.959440
  S     6.977587  5.686258 -0.197063
  S     7.030150  9.494275 -0.087062
  S     6.711174  5.991808  3.949903
  S     6.702602  9.881866  4.012190
