16  
    
  C     9.971280  7.727063  2.984579
  C    10.561263 11.672825  3.005008
  C     8.776581  7.304559  2.272551
  C     9.321533 11.077586  2.566990
  N    11.086804  7.938165  2.260343
  N    11.421488 11.948626  2.021806
  N     9.032089  7.138706  0.962575
  N     9.389581 10.711441  1.291439
  N     8.275372  7.005983  4.721941
  N     9.048102 11.386746  5.117150
  S     7.472247  6.841599  3.284388
  S     8.169878 10.862352  3.806201
  S    10.623787  7.651328  0.699513
  S    10.806891 11.179517  0.655998
  S     9.791455  7.545038  4.692749
  S    10.600185 12.000586  4.726784
