16  
    
  C     6.843052  5.729017  1.639055
  C     7.243060  9.963188  2.485552
  C     5.742347  5.006065  1.057299
  C     6.008345  9.493946  1.939839
  N     7.968958  5.748835  0.903926
  N     8.225732 10.183990  1.586950
  N     5.930048  4.726607 -0.226699
  N     6.052527  9.242540  0.618513
  N     4.883563  5.861895  3.284507
  N     5.591409  9.662208  4.474829
  S     4.319021  5.020843  1.955170
  S     4.760972  9.438997  3.061870
  S     7.497447  5.103726 -0.557096
  S     7.528007  9.587707  0.123685
  S     6.437904  6.311747  3.237909
  S     7.156261 10.291138  4.212408
