16  
    
  C     9.292137  6.629408  2.491323
  C     9.632614 10.644132  2.796658
  C     8.054249  6.306395  1.817719
  C     8.318898 10.214950  2.262405
  N    10.324370  6.842022  1.682855
  N    10.623344 10.712681  1.903870
  N     8.162807  6.197573  0.500800
  N     8.371931 10.016092  0.937210
  N     7.404967  6.374965  4.261514
  N     7.964456 10.509037  4.782905
  S     6.742010  6.037247  2.778665
  S     7.075633 10.092608  3.404366
  S     9.733899  6.688912  0.137617
  S     9.942732 10.363513  0.431848
  S     9.023442  6.793607  4.214553
  S     9.554441 10.929292  4.477298
