16  
    
  C     4.536512  5.163840  1.839589
  C     4.632925  8.505179  1.452973
  C     3.378852  4.602408  1.194608
  C     3.389835  8.127723  0.734341
  N     5.616551  5.290367  1.038458
  N     5.690374  8.642313  0.665693
  N     3.520589  4.467847 -0.112198
  N     3.603185  7.851747 -0.550589
  N     2.722533  4.706245  3.686680
  N     2.794064  8.382946  3.285450
  S     1.996146  4.511921  2.232625
  S     2.031535  7.957512  1.833847
  S     4.997991  5.021118 -0.535147
  S     5.216300  8.165179 -0.903839
  S     4.294255  5.315363  3.635151
  S     4.392557  8.893872  3.122212
