16  
    
  C     3.976086  4.674606  1.692143
  C     3.959102  8.511136  1.571947
  C     2.715288  4.493920  0.991203
  C     2.794205  7.967514  0.886094
  N     5.036181  4.680277  0.912303
  N     5.055106  8.469240  0.848113
  N     2.887283  4.156205 -0.292691
  N     2.958568  7.734517 -0.416321
  N     2.266620  4.843824  3.579089
  N     2.015951  8.340756  3.358355
  S     1.460672  4.360740  2.272694
  S     1.391509  7.880840  1.909019
  S     4.564019  4.340116 -0.638701
  S     4.580558  8.036703 -0.710273
  S     3.970206  4.970692  3.355516
  S     3.678218  8.689131  3.278791
