16  
    
  C    11.952670  8.411005  3.278438
  C    11.590930 11.950981  3.551469
  C    10.698854  8.195740  2.618930
  C    10.412310 11.471634  2.888500
  N    12.994760  8.626767  2.455724
  N    12.542778 12.382787  2.714891
  N    10.761348  8.218216  1.299218
  N    10.554451 11.327098  1.568118
  N    10.061805  8.207060  5.128004
  N     9.688956 11.703200  5.373639
  S     9.286298  8.199133  3.711678
  S     9.046326 11.192851  3.886376
  S    12.330884  8.488665  0.935374
  S    11.948396 11.977211  1.160874
  S    11.738386  8.490460  5.032791
  S    11.360605 12.078538  5.213098
