16  
    
  C     5.973765  5.724603  2.179535
  C     5.972220  9.201256  1.602708
  C     4.683703  5.561466  1.589532
  C     4.737988  8.938530  0.924981
  N     6.987346  5.443270  1.346125
  N     7.074032  9.188138  0.852836
  N     4.665026  5.404618  0.271091
  N     4.912365  8.614918 -0.350844
  N     4.206985  5.871346  4.042660
  N     4.150939  9.046241  3.397997
  S     3.322898  5.685396  2.654861
  S     3.348759  8.780249  2.006249
  S     6.266233  5.283961 -0.163209
  S     6.502344  8.770768 -0.674832
  S     5.836891  5.821960  3.892855
  S     5.749344  9.530836  3.281692
