16  
    
  C     7.803057  6.409776  2.145615
  C     8.040991 10.525195  2.160617
  C     6.649716  5.869879  1.522643
  C     6.914009  9.915518  1.559021
  N     8.834602  6.622262  1.348298
  N     9.055076 10.777642  1.360240
  N     6.699029  5.844537  0.196473
  N     7.038462  9.751108  0.267881
  N     6.141524  5.846560  3.985510
  N     6.417191 10.205196  4.087231
  S     5.306998  5.529349  2.601504
  S     5.602896  9.659250  2.723918
  S     8.346574  6.276916 -0.169936
  S     8.643389 10.232397 -0.138452
  S     7.779674  6.381049  3.861551
  S     7.886225 10.914696  3.862018
