16  
    
  C     5.777763  5.091512  1.971435
  C     5.642471  9.193955  2.001616
  C     4.596727  4.557498  1.321395
  C     4.549397  8.426639  1.472064
  N     6.728446  5.477387  1.119352
  N     6.592391  9.520374  1.131366
  N     4.721494  4.266488  0.040057
  N     4.589995  8.309192  0.152934
  N     3.955572  4.784002  3.788418
  N     4.110468  8.751035  3.962366
  S     3.266945  4.268925  2.351971
  S     3.253737  8.154179  2.644874
  S     6.232710  4.810540 -0.362508
  S     6.059553  9.032642 -0.375522
  S     5.467005  5.484025  3.599113
  S     5.620363  9.342708  3.723238
