16  
    
  C     6.891879  5.996795  2.336401
  C     7.289110  9.832929  2.199891
  C     5.789826  5.551562  1.460120
  C     6.003332  9.514999  1.537111
  N     7.991900  6.311919  1.621505
  N     8.335960  9.844598  1.356432
  N     6.149557  5.276862  0.194416
  N     6.126572  9.303995  0.229292
  N     4.778734  5.625545  3.839691
  N     5.437597  9.466368  4.000376
  S     4.351331  5.019375  2.335407
  S     4.686507  9.361244  2.609592
  S     7.697236  5.852009  0.042506
  S     7.653503  9.553750 -0.201218
  S     6.447062  6.120841  4.038628
  S     7.105783  9.894240  3.931203
