16  
    
  C     7.214279  6.019473  2.177369
  C     7.411746  9.714082  2.443815
  C     6.086826  5.541633  1.391285
  C     6.188803  9.441867  1.752454
  N     8.325858  6.245701  1.490877
  N     8.550572  9.701759  1.730615
  N     6.344438  5.316333  0.107135
  N     6.384381  9.272973  0.433074
  N     5.257458  5.651538  3.801988
  N     5.595424  9.488283  4.217395
  S     4.664820  5.178206  2.324381
  S     4.795128  9.466980  2.816600
  S     7.950829  5.788999 -0.086461
  S     7.982010  9.419776  0.140023
  S     6.877278  6.201998  3.866700
  S     7.245844  9.913477  4.193726
