16  
    
  C    10.111489  7.488560  2.552805
  C    10.383988 11.067548  2.678998
  C     8.875861  6.957280  1.988267
  C     9.093306 10.985263  2.009212
  N    11.078355  7.659870  1.648891
  N    11.404277 10.947019  1.851604
  N     8.886923  6.721403  0.694226
  N     9.188399 11.045299  0.691042
  N     8.354313  7.275989  4.445985
  N     8.595985 11.047579  4.536737
  S     7.604951  6.685954  3.119181
  S     7.776604 10.902387  3.133573
  S    10.427239  7.014219  0.219073
  S    10.801939 10.994696  0.342241
  S     9.973144  7.601005  4.305404
  S    10.259050 11.122555  4.400840
