16  
    
  C    11.856680  8.690960  3.504314
  C    11.516176 12.294014  3.274784
  C    10.627944  8.332465  2.897587
  C    10.439857 11.643123  2.528323
  N    12.890455  8.792497  2.637491
  N    12.619058 12.471578  2.544182
  N    10.671901  8.151133  1.584091
  N    10.698900 11.521143  1.233924
  N    10.073989  8.590186  5.388874
  N     9.608652 11.900112  4.890933
  S     9.233969  8.289711  3.953017
  S     9.026058 11.398287  3.479003
  S    12.234048  8.459792  1.160543
  S    12.241602 11.895681  1.007621
  S    11.653875  9.018967  5.204282
  S    11.192642 12.407267  5.032539
