16  
    
  C    12.579375  8.888465  3.475179
  C    12.220791 12.882455  3.667469
  C    11.356625  8.375649  2.798133
  C    11.043938 12.287770  3.069425
  N    13.581124  9.147313  2.645945
  N    13.229342 13.238663  2.835365
  N    11.501534  8.307693  1.472451
  N    11.300597 11.996300  1.794776
  N    10.881286  8.731672  5.355025
  N    10.529696 12.451608  5.602720
  S    10.041036  8.238836  3.929659
  S     9.876820 11.748249  4.267458
  S    13.050553  8.814350  1.131092
  S    12.774567 12.595948  1.335988
  S    12.489123  9.085686  5.220684
  S    12.077101 13.134204  5.372374
