16  
    
  C     6.580320  5.834682  1.911698
  C     6.570173  9.601078  1.839584
  C     5.299590  5.551185  1.377310
  C     5.371042  9.089738  1.275644
  N     7.577694  5.868153  1.025179
  N     7.583378  9.685421  0.967164
  N     5.310318  5.236326  0.077475
  N     5.458649  8.855212 -0.036043
  N     5.013403  5.749874  3.954535
  N     4.968932  9.117449  3.903516
  S     4.018157  5.423611  2.613631
  S     4.065171  8.891172  2.465980
  S     6.858695  5.463278 -0.426467
  S     7.027972  9.266593 -0.494192
  S     6.590601  6.013080  3.618560
  S     6.571097  9.699038  3.617873
