16  
    
  C     9.184130  7.143883  2.558073
  C     8.843198 11.100581  2.329908
  C     7.953195  6.587938  2.034483
  C     7.729712 10.405476  1.756469
  N    10.129474  7.299283  1.648744
  N     9.849977 11.381310  1.510906
  N     7.921537  6.254146  0.757485
  N     7.857842 10.141312  0.441319
  N     7.541693  7.030550  4.523063
  N     7.213683 10.491466  4.232634
  S     6.748572  6.299634  3.219107
  S     6.412106 10.158992  2.814222
  S     9.448732  6.632827  0.204488
  S     9.305107 10.707211 -0.012279
  S     9.128154  7.378143  4.297764
  S     8.704110 11.313731  4.072970
