16  
    
  C     5.297409  5.641326  1.609368
  C     5.248793  8.952539  1.435984
  C     4.018901  5.170857  1.140339
  C     3.960545  8.547905  0.805457
  N     6.298657  5.494771  0.748063
  N     6.278312  8.986923  0.591987
  N     4.004304  4.965552 -0.204631
  N     4.093591  8.182905 -0.462049
  N     3.758004  5.545810  3.715915
  N     3.451217  8.908977  3.263162
  S     2.870273  4.997614  2.441547
  S     2.698358  8.200331  1.904966
  S     5.603342  5.224487 -0.712205
  S     5.717484  8.449304 -0.882142
  S     5.414534  5.754436  3.301969
  S     5.023879  9.430987  3.090353
