16  
    
  C    12.066916  8.506059  3.643755
  C    12.011385 12.146197  3.315331
  C    10.870377  8.138885  2.889778
  C    10.834740 11.561945  2.699286
  N    13.141816  8.682271  2.893413
  N    12.952102 12.370387  2.381281
  N    11.080229  7.973792  1.611356
  N    10.790536 11.424597  1.354669
  N    10.177578  8.342881  5.356332
  N    10.230123 12.006518  5.281361
  S     9.479330  7.925010  3.870368
  S     9.531649 11.545367  3.789618
  S    12.633964  8.436652  1.296540
  S    12.395774 11.852421  0.938215
  S    11.791991  8.792106  5.333139
  S    11.920563 12.255529  5.057224
