16  
    
  C     9.899455  7.706176  2.859825
  C     9.876676 11.148875  2.869016
  C     8.719342  7.231306  2.149187
  C     8.600473 10.841580  2.176334
  N    10.903204  8.012067  2.027199
  N    10.914150 11.234755  2.057559
  N     8.861223  7.094988  0.849466
  N     8.732706 10.746963  0.864376
  N     7.880256  7.546841  4.560424
  N     8.107322 10.792541  4.696560
  S     7.287999  6.968973  3.071099
  S     7.287925 10.888873  3.302046
  S    10.407759  7.511156  0.510593
  S    10.322735 10.998565  0.467316
  S     9.504743  7.783233  4.588826
  S     9.726119 11.314865  4.592394
