16  
    
  C     8.624509  7.286537  2.681670
  C     8.888030 11.020245  2.253574
  C     7.477640  6.493941  2.150321
  C     7.722710 10.523302  1.523565
  N     9.627727  7.495142  1.853934
  N     9.951836 11.406407  1.523070
  N     7.528889  6.337592  0.824612
  N     7.892104 10.636677  0.217110
  N     7.136332  6.998363  4.684214
  N     7.230099 10.428024  4.110980
  S     6.368164  6.180791  3.439893
  S     6.464633 10.104657  2.667094
  S     9.096497  6.862336  0.409064
  S     9.398928 11.164264 -0.071968
  S     8.714572  7.523290  4.342063
  S     8.783346 11.107312  3.976145
