16  
    
  C    10.771676  7.775154  3.110614
  C    10.619923 11.991372  3.128144
  C     9.502349  7.389155  2.516870
  C     9.420797 11.230640  2.721953
  N    11.695738  8.081783  2.237107
  N    11.515313 12.215984  2.169220
  N     9.473986  7.440922  1.203017
  N     9.332357 10.988775  1.417582
  N     9.105151  7.586985  5.116451
  N     9.181611 11.563794  5.255839
  S     8.297951  7.087052  3.723736
  S     8.307325 10.925754  4.007080
  S    11.040590  7.792038  0.727121
  S    10.786733 11.633277  0.788127
  S    10.744726  7.840940  4.782512
  S    10.660849 12.212776  4.820656
