16  
    
  C    10.974276  7.853690  3.150983
  C    11.517483 11.945724  3.012140
  C     9.814753  7.551117  2.377870
  C    10.368973 11.210645  2.488599
  N    12.114617  7.878615  2.421616
  N    12.513279 12.187183  2.151189
  N    10.040666  7.314247  1.066459
  N    10.530835 10.928768  1.205439
  N     8.996666  7.769256  4.778512
  N     9.858030 11.483285  4.920591
  S     8.321055  7.409075  3.330076
  S     9.079028 10.873774  3.623269
  S    11.663145  7.620499  0.851202
  S    12.031160 11.335461  0.708000
  S    10.621741  7.983355  4.839122
  S    11.284550 12.272746  4.699364
