16  
    
  C    11.013733  8.158323  2.956720
  C    10.900713 11.570369  2.882655
  C     9.850166  7.388182  2.552160
  C     9.629495 11.208129  2.250932
  N    11.875350  8.534601  2.010904
  N    11.872140 11.791802  1.997655
  N     9.795992  7.171404  1.241418
  N     9.677182 11.051831  0.931112
  N     9.558134  7.827636  5.023370
  N     9.167726 11.498155  4.702830
  S     8.732195  7.054437  3.862427
  S     8.361573 10.846801  3.356419
  S    11.225159  7.788190  0.601333
  S    11.239824 11.582208  0.477480
  S    10.984994  8.585619  4.642628
  S    10.778717 11.666143  4.590607
