16  
    
  C     3.581781  4.956708  1.558317
  C     3.907933  8.188067  1.679614
  C     2.431292  4.353640  0.939763
  C     2.623276  8.015316  1.128886
  N     4.626540  5.045950  0.711466
  N     4.911367  8.352621  0.794187
  N     2.471683  4.189561 -0.375219
  N     2.644234  7.789836 -0.198247
  N     1.950718  4.315419  3.445203
  N     2.145751  8.200553  3.642348
  S     1.130090  3.993839  2.026946
  S     1.297227  7.858300  2.262936
  S     4.077740  4.615921 -0.816092
  S     4.219278  8.076929 -0.707434
  S     3.496386  4.771242  3.324043
  S     3.743110  8.585117  3.417275
