16  
    
  C    11.304282  8.528410  3.343980
  C    11.469178 12.259987  3.285045
  C    10.194080  7.927793  2.731111
  C    10.204813 11.708665  2.807811
  N    12.373846  8.608431  2.579380
  N    12.427543 12.412500  2.376390
  N    10.447316  7.502131  1.501226
  N    10.298989 11.310686  1.532205
  N     9.522182  8.399738  5.198343
  N     9.753231 12.354527  5.285664
  S     8.760701  7.794781  3.758981
  S     8.887977 11.767274  4.009484
  S    11.968920  7.956096  1.127037
  S    11.857606 11.646165  1.062456
  S    11.122267  8.903696  5.013585
  S    11.305268 12.775393  4.937447
