16  
    
  C     7.829753  6.417892  2.144535
  C     8.040099 10.556607  2.169831
  C     6.651890  5.850987  1.513717
  C     6.908364  9.920492  1.541154
  N     8.838494  6.614684  1.327262
  N     9.074408 10.801970  1.385559
  N     6.710053  5.826014  0.196664
  N     7.082006  9.713966  0.257290
  N     6.153726  5.803066  4.012596
  N     6.389817 10.181774  4.081609
  S     5.323239  5.535225  2.589641
  S     5.609635  9.669098  2.701662
  S     8.315232  6.275121 -0.184836
  S     8.629573 10.220769 -0.142624
  S     7.770506  6.372676  3.873346
  S     7.885606 10.893539  3.885582
