16  
    
  C    11.080386  8.193532  3.087596
  C    11.516762 11.687159  3.203602
  C     9.847377  7.542738  2.631229
  C    10.261335 11.506638  2.502231
  N    12.035915  8.307324  2.197998
  N    12.608229 11.810630  2.469611
  N     9.898715  7.087130  1.377062
  N    10.452312 11.364385  1.213540
  N     9.501098  8.081028  5.173081
  N     9.645751 11.433943  4.937858
  S     8.596526  7.424513  3.862886
  S     8.845839 11.317694  3.502578
  S    11.370519  7.653050  0.780567
  S    12.083754 11.333987  0.882596
  S    11.099089  8.449888  4.786516
  S    11.238002 11.871423  4.896738
