16  
    
  C     4.514220  5.203220  1.623079
  C     4.465080  8.495068  1.480160
  C     3.244583  4.838220  1.030815
  C     3.290789  7.907038  0.899431
  N     5.525858  5.302653  0.734729
  N     5.518477  8.469991  0.644440
  N     3.362354  4.475509 -0.254745
  N     3.383301  7.701430 -0.425844
  N     2.775788  4.885873  3.602635
  N     2.608976  8.760483  3.236780
  S     2.015884  4.447222  2.170819
  S     1.904096  7.855013  2.008049
  S     4.905154  4.903188 -0.754289
  S     4.973678  8.040862 -0.823884
  S     4.344220  5.392357  3.410767
  S     4.242361  8.891648  3.203212
