16  
    
  C     7.572370  6.580540  2.318125
  C     7.658639 10.049168  2.289381
  C     6.284497  6.172675  1.820110
  C     6.504025  9.708951  1.536711
  N     8.529089  6.668243  1.425466
  N     8.779429 10.159049  1.604773
  N     6.272271  5.764608  0.558606
  N     6.740329  9.549982  0.243417
  N     6.134923  6.527951  4.367658
  N     5.870902 10.046631  4.037312
  S     5.085605  6.147173  3.067750
  S     5.073977  9.720104  2.613122
  S     7.895363  6.039923  0.036444
  S     8.364087  9.817974  0.028785
  S     7.664706  6.851581  4.009088
  S     7.506682 10.209923  3.989182
