16  
    
  C    10.987611  7.707573  3.108528
  C    11.106243 11.767919  2.735498
  C     9.740271  7.402460  2.529208
  C     9.913382 11.109000  2.219626
  N    11.968053  7.884729  2.215382
  N    12.122155 11.948475  1.895723
  N     9.734349  7.338489  1.206391
  N    10.040395 10.961735  0.911000
  N     9.273307  7.661115  5.011640
  N     9.407374 11.507608  4.786093
  S     8.444162  7.139698  3.697546
  S     8.596969 10.971644  3.392000
  S    11.264986  7.762915  0.768340
  S    11.537769 11.347634  0.407549
  S    10.900932  7.745330  4.852490
  S    10.995653 12.026264  4.414822
