16  
    
  C     6.220786  5.703015  2.043081
  C     6.057487  9.201830  1.596778
  C     4.928095  5.390280  1.513060
  C     4.825886  8.746307  1.020369
  N     7.207004  5.660539  1.153742
  N     7.066991  9.297812  0.744026
  N     4.927306  5.213728  0.203133
  N     4.891218  8.493467 -0.272069
  N     4.527068  5.848763  3.982995
  N     4.274816  9.248934  3.373524
  S     3.557454  5.566202  2.598626
  S     3.529907  8.542937  2.136363
  S     6.502120  5.319425 -0.336118
  S     6.401461  8.902263 -0.742114
  S     6.191853  5.969239  3.813647
  S     5.950676  9.398305  3.349345
