16  
    
  C    11.993970  8.593411  3.225500
  C    11.990466 12.143688  3.223805
  C    10.663809  8.321626  2.686148
  C    10.783572 11.730994  2.603608
  N    13.002606  8.630732  2.388751
  N    13.019547 12.198070  2.379904
  N    10.661032  8.203640  1.357434
  N    10.836087 11.725417  1.256636
  N    10.410906  8.467874  5.261241
  N    10.316077 11.938356  5.142031
  S     9.496990  8.122209  3.950317
  S     9.458184 11.550210  3.725609
  S    12.283957  8.435268  0.877316
  S    12.415702 11.899518  0.851519
  S    12.032349  8.677706  4.990240
  S    11.949299 12.394396  4.909566
