16  
    
  C     4.476720  4.980371  1.293940
  C     4.218691  8.564707  1.576389
  C     3.186390  4.690633  0.711318
  C     3.143530  8.096080  0.766749
  N     5.414976  5.149018  0.375362
  N     5.373505  8.807304  0.946627
  N     3.191682  4.435096 -0.588358
  N     3.343764  8.196255 -0.533710
  N     2.706336  4.962410  3.238661
  N     2.349661  7.809683  3.263453
  S     1.884728  4.678774  1.816093
  S     1.717353  7.731587  1.681377
  S     4.664261  4.866108 -1.110392
  S     4.957271  8.617215 -0.715411
  S     4.386447  5.120833  3.063223
  S     3.862754  8.510944  3.283242
