16  
    
  C     7.994610  6.492813  2.631460
  C     8.543810 10.329802  2.435832
  C     6.818572  6.130707  1.858096
  C     7.271393  9.906571  1.910006
  N     9.063834  6.791218  1.909330
  N     9.552427 10.425892  1.580036
  N     7.045932  5.922586  0.560358
  N     7.325410  9.663814  0.583051
  N     6.116780  6.250101  4.391479
  N     6.922016 10.379368  4.464191
  S     5.402339  5.944450  2.917325
  S     6.055495  9.717501  3.178333
  S     8.675803  6.379644  0.320774
  S     8.944403  9.855402  0.164252
  S     7.724793  6.828831  4.292931
  S     8.549929 10.584596  4.169974
