16  
    
  C     8.025548  6.641326  2.650029
  C     8.647118 10.391564  2.761526
  C     6.912975  6.066534  1.895009
  C     7.470962  9.901508  2.070103
  N     9.176689  6.819517  2.019683
  N     9.725280 10.555851  1.985263
  N     7.198314  5.954723  0.594808
  N     7.627684  9.689324  0.757041
  N     6.152531  6.341643  4.377088
  N     6.890803 10.250844  4.624079
  S     5.480919  5.797209  2.955556
  S     6.094633  9.962106  3.215588
  S     8.841113  6.414068  0.410682
  S     9.213362 10.119674  0.449592
  S     7.800631  6.781453  4.348281
  S     8.497568 10.669859  4.457115
