16  
    
  C     5.651443  5.243110  1.865750
  C     5.344881  8.890385  1.711049
  C     4.312990  5.109194  1.413044
  C     4.208329  8.320788  1.035453
  N     6.507574  5.514053  0.883138
  N     6.448479  9.070020  0.984321
  N     4.175691  5.065878  0.089573
  N     4.383223  8.299323 -0.284868
  N     4.036436  5.156876  3.962865
  N     3.458259  8.834202  3.403348
  S     3.113819  4.863110  2.646381
  S     2.769220  8.087811  2.058526
  S     5.681852  5.284835 -0.523450
  S     5.946620  8.695732 -0.556644
  S     5.646444  5.470836  3.609156
  S     5.035215  9.249888  3.391126
