16  
    
  C    10.897066  8.138962  3.260260
  C    10.691619 11.937340  3.244493
  C     9.752130  7.591183  2.654592
  C     9.542840 11.272183  2.739483
  N    11.875942  8.438964  2.373449
  N    11.575324 12.299757  2.307842
  N     9.800066  7.426896  1.323427
  N     9.619431 11.062507  1.431899
  N     9.208587  7.726613  5.164214
  N     9.119265 11.582217  5.234145
  S     8.399681  7.382080  3.770348
  S     8.280301 11.038538  3.904317
  S    11.316721  7.884357  0.944904
  S    10.927486 11.784411  0.856117
  S    10.743022  8.406019  4.947684
  S    10.636174 12.094972  4.956477
