16  
    
  C     9.244422  6.894439  2.713194
  C     9.681086 10.812507  2.729805
  C     8.037670  6.435715  2.049265
  C     8.556113 10.157275  2.109793
  N    10.219389  7.315057  1.866294
  N    10.573394 11.288023  1.880376
  N     8.167513  6.309134  0.739061
  N     8.661379 10.071460  0.777750
  N     7.422679  6.367410  4.545740
  N     8.165643 10.049508  4.668454
  S     6.681436  6.076226  3.052310
  S     7.383317  9.629405  3.260224
  S     9.626849  6.837800  0.354268
  S    10.044173 10.799991  0.361997
  S     9.001812  6.896967  4.460405
  S     9.582406 10.974180  4.455660
