16  
    
  C    11.095111  8.163977  2.946248
  C    10.829302 11.932307  3.066901
  C     9.885505  7.677852  2.345269
  C     9.684240 11.287213  2.417053
  N    12.081449  8.437472  2.109490
  N    11.850228 12.103457  2.245435
  N     9.930422  7.580979  1.013762
  N     9.854444 11.076485  1.119631
  N     9.360899  7.800150  4.857416
  N     9.005287 11.591804  4.915197
  S     8.506441  7.507569  3.448771
  S     8.305299 11.085070  3.461351
  S    11.458866  7.957647  0.574704
  S    11.347139 11.719769  0.689077
  S    10.834412  8.520779  4.657436
  S    10.600597 12.143251  4.752962
