16  
    
  C    12.835293  9.418740  3.409768
  C    12.800660 12.948052  3.565856
  C    11.681111  8.777266  2.803104
  C    11.526052 12.603832  2.988661
  N    13.969001  9.381579  2.659866
  N    13.835041 12.983888  2.708102
  N    11.861227  8.499842  1.500367
  N    11.608575 12.261956  1.715344
  N    11.091500  9.021228  5.311320
  N    11.043149 12.959804  5.497494
  S    10.382002  8.500936  3.890520
  S    10.280465 12.439120  4.111578
  S    13.430065  8.848970  1.186323
  S    13.192090 12.370357  1.211092
  S    12.536207  9.740540  5.157312
  S    12.727509 13.199081  5.259343
