16  
    
  C    10.978270  7.972955  3.040624
  C    10.983373 11.731519  2.727347
  C     9.755027  7.408705  2.589424
  C     9.742961 11.177148  2.146153
  N    11.843264  8.231536  2.090293
  N    11.973963 11.850033  1.851547
  N     9.695953  7.210647  1.299394
  N     9.814170 10.978321  0.843432
  N     9.549514  7.540612  5.074479
  N     9.296212 11.241614  4.697467
  S     8.553904  7.071342  3.833009
  S     8.397288 10.997850  3.284584
  S    11.136077  7.701054  0.681026
  S    11.333236 11.434517  0.402436
  S    10.992892  8.167387  4.755090
  S    10.861236 11.862886  4.446521
