16  
    
  C    11.002605  7.862045  3.123195
  C    11.515629 12.005873  3.028759
  C     9.795081  7.524000  2.375748
  C    10.427150 11.227016  2.482830
  N    12.140048  7.944545  2.439951
  N    12.521974 12.128438  2.171953
  N     9.987565  7.339120  1.097916
  N    10.532360 10.911371  1.208135
  N     9.063248  7.831523  4.794889
  N     9.791556 11.501470  4.972811
  S     8.301113  7.376438  3.364671
  S     9.095642 10.872466  3.574780
  S    11.631186  7.601491  0.825644
  S    12.079543 11.365412  0.710104
  S    10.639920  8.041671  4.840023
  S    11.301177 12.252075  4.739809
