16  
    
  C     9.786916  7.566785  2.752403
  C     9.766210 11.143990  2.914766
  C     8.618948  7.131879  2.084906
  C     8.636895 10.695994  2.252662
  N    10.800879  7.787115  1.907893
  N    10.833307 11.420007  2.145692
  N     8.747186  6.895777  0.778874
  N     8.818770 10.469402  0.946227
  N     7.924795  7.122241  4.570024
  N     7.992783 10.697032  4.736073
  S     7.245939  6.856403  3.072913
  S     7.304078 10.203269  3.273512
  S    10.248648  7.413029  0.390248
  S    10.331214 10.964326  0.599852
  S     9.570305  7.646490  4.531512
  S     9.563728 11.299565  4.627719
