16  
    
  C     4.753230  4.924292  2.057688
  C     4.708106  8.872132  1.664555
  C     3.544323  4.706758  1.299627
  C     3.518025  8.368479  1.004217
  N     5.871401  5.040809  1.340490
  N     5.698386  9.166440  0.828601
  N     3.757600  4.503922 -0.001135
  N     3.531232  8.507794 -0.317288
  N     2.818290  4.800057  3.788926
  N     3.112315  8.188367  3.518418
  S     2.166999  4.521468  2.260101
  S     2.260587  7.915698  2.099003
  S     5.349829  4.834753 -0.252639
  S     5.058039  8.977140 -0.734405
  S     4.464851  5.084147  3.768318
  S     4.640164  8.871976  3.396239
