16  
    
  C     5.646005  5.204530  1.952025
  C     5.667147  9.041221  1.993651
  C     4.486322  4.560432  1.354899
  C     4.478101  8.446662  1.383512
  N     6.628185  5.507494  1.118362
  N     6.605748  9.313370  1.105916
  N     4.632421  4.294195  0.062418
  N     4.462612  8.421489  0.072625
  N     3.946064  5.040530  3.838800
  N     3.987773  8.740868  3.844472
  S     3.274041  4.193902  2.612158
  S     3.305924  8.033206  2.510354
  S     6.100559  4.997857 -0.403505
  S     6.006219  8.979163 -0.409791
  S     5.470926  5.628708  3.639401
  S     5.571032  9.174277  3.743928
