16  
    
  C     9.258345  7.103756  2.533453
  C     8.922736 11.029028  2.345229
  C     8.061737  6.483092  2.068471
  C     7.757035 10.391494  1.766783
  N    10.167140  7.179521  1.557710
  N     9.854223 11.258288  1.436864
  N     7.988186  6.322991  0.758724
  N     7.809311 10.144539  0.466800
  N     7.520510  6.981954  4.445979
  N     7.227462 10.483594  4.248636
  S     6.750904  6.318133  3.126740
  S     6.406078 10.146953  2.798801
  S     9.445618  6.669791  0.177919
  S     9.363349 10.641653 -0.018217
  S     9.158676  7.374474  4.282483
  S     8.678972 11.314400  4.060276
