16  
    
  C     9.115962  7.116402  2.366496
  C     9.141568 10.954533  2.626831
  C     7.896244  6.679701  1.712726
  C     7.907240 10.458136  2.026529
  N    10.164220  7.209701  1.530261
  N    10.130514 11.131406  1.735069
  N     8.024614  6.597075  0.394562
  N     7.981523 10.278146  0.718347
  N     7.207388  6.840734  4.089339
  N     7.428155 10.639494  4.507435
  S     6.473964  6.500290  2.624299
  S     6.572590 10.375334  3.082864
  S     9.559444  6.927066  0.026316
  S     9.524827 10.809812  0.267585
  S     8.867873  7.049461  4.126962
  S     8.961540 11.241633  4.342733
