16  
    
  C     4.462058  5.052844  1.751878
  C     4.174932  8.633946  1.617994
  C     3.239762  4.615805  1.102191
  C     3.052546  8.268045  0.825963
  N     5.514542  5.150152  0.920714
  N     5.184241  9.143713  0.899175
  N     3.314066  4.604133 -0.240496
  N     3.304817  8.246459 -0.488700
  N     2.762945  4.857823  3.598961
  N     2.230146  8.125233  3.232708
  S     1.877988  4.784288  2.214074
  S     1.645978  7.714936  1.715827
  S     4.959541  4.787279 -0.580266
  S     4.804319  8.897349 -0.650817
  S     4.330145  5.319705  3.405049
  S     3.873722  8.523576  3.331085
