16  
    
  C     8.964580  7.249518  2.547688
  C     8.780537 11.137623  2.312867
  C     7.838366  6.529861  2.080681
  C     7.685660 10.463051  1.742059
  N     9.965013  7.306348  1.683911
  N     9.770108 11.479908  1.508704
  N     7.934432  6.195570  0.787148
  N     7.840205 10.205585  0.436881
  N     7.519855  7.003490  4.676050
  N     7.155806 10.689594  4.269298
  S     6.619026  6.298498  3.425296
  S     6.412927 10.099642  2.883481
  S     9.460168  6.659904  0.278212
  S     9.350643 10.924276  0.001484
  S     9.057547  7.455080  4.268619
  S     8.715791 11.223061  4.033453
