16  
    
  C     9.693428  7.563145  2.815492
  C     9.897031 11.196882  2.759081
  C     8.549310  7.017819  2.109601
  C     8.651615 10.821662  2.144937
  N    10.805222  7.812402  2.115695
  N    10.937253 11.328424  1.939409
  N     8.825781  6.856582  0.819349
  N     8.733330 10.695561  0.817694
  N     7.825654  7.507183  4.566700
  N     8.197552 11.172158  4.610524
  S     7.201902  6.743073  3.205635
  S     7.340413 10.868015  3.239125
  S    10.392781  7.419753  0.575531
  S    10.303275 10.996379  0.380143
  S     9.413525  7.942011  4.483856
  S     9.860790 11.203304  4.480302
