16  
    
  C    10.971707  7.842743  3.155114
  C    11.513306 11.897030  2.989537
  C     9.785569  7.543151  2.363203
  C    10.347615 11.216781  2.465243
  N    12.087057  7.852261  2.413248
  N    12.498267 12.191528  2.136356
  N    10.074722  7.321279  1.065882
  N    10.516714 10.906061  1.191339
  N     8.949419  7.733379  4.789264
  N     9.883758 11.477631  4.907192
  S     8.343439  7.427056  3.306573
  S     9.074244 10.878368  3.638717
  S    11.677317  7.624755  0.865413
  S    12.001328 11.338335  0.722004
  S    10.623363  7.953907  4.839184
  S    11.280237 12.286909  4.682683
