16  
    
  C    11.105542  8.156105  2.961522
  C    10.846884 11.890065  3.068322
  C     9.877069  7.679311  2.327196
  C     9.682887 11.303174  2.411483
  N    12.067091  8.408297  2.094914
  N    11.856466 12.106548  2.257230
  N     9.930463  7.593208  1.010586
  N     9.889368 11.087090  1.132385
  N     9.358186  7.808154  4.831811
  N     9.001073 11.590396  4.896316
  S     8.493073  7.526518  3.438623
  S     8.293653 11.100203  3.466738
  S    11.443972  7.967402  0.584391
  S    11.342629 11.721338  0.698294
  S    10.804315  8.511097  4.658931
  S    10.593888 12.163201  4.729262
