16  
    
  C     4.422053  5.025252  1.698160
  C     4.215762  8.625035  1.613112
  C     3.198809  4.679640  1.038294
  C     3.066236  8.162999  0.808567
  N     5.508154  5.192666  0.969155
  N     5.221081  9.079369  0.872861
  N     3.421951  4.493115 -0.274484
  N     3.256386  8.218070 -0.509458
  N     2.739422  4.847076  3.633774
  N     2.301188  8.151100  3.272486
  S     1.856829  4.824556  2.257072
  S     1.687391  7.760481  1.807445
  S     5.021202  4.788193 -0.554589
  S     4.792033  8.852934 -0.736030
  S     4.334751  5.333928  3.436964
  S     3.847449  8.586470  3.328810
