16  
    
  C    12.613094  8.828940  3.659171
  C    12.422083 12.775703  3.892882
  C    11.387348  8.488741  3.020819
  C    11.322237 12.132471  3.233454
  N    13.641817  9.028293  2.867114
  N    13.460929 13.085229  3.124361
  N    11.523449  8.256895  1.709417
  N    11.476739 12.044641  1.919959
  N    11.032658  8.498155  5.518856
  N    10.562179 12.442607  5.698080
  S    10.142366  8.185953  4.211184
  S     9.897101 11.799431  4.246543
  S    13.126268  8.673125  1.296338
  S    13.040321 12.636529  1.597028
  S    12.563572  9.124385  5.395852
  S    12.048863 13.110529  5.586784
