16  
    
  C    12.110849  8.541472  3.608767
  C    11.982771 12.181615  3.262607
  C    10.908202  8.080047  2.934951
  C    10.724424 11.822350  2.692842
  N    13.157667  8.772503  2.798638
  N    12.965474 12.381125  2.358856
  N    11.005452  7.991645  1.604068
  N    10.811455 11.457737  1.422209
  N    10.172901  8.332813  5.414890
  N    10.249997 11.961549  5.178850
  S     9.485922  7.905106  3.911829
  S     9.466431 11.552269  3.799650
  S    12.576126  8.364490  1.265805
  S    12.264613 11.816171  0.899117
  S    11.781250  8.805850  5.304819
  S    11.885874 12.204873  5.041938
