16  
    
  C    11.349087  8.759791  3.238558
  C    11.370464 12.321082  3.310868
  C    10.237394  8.011861  2.683122
  C    10.261476 11.787082  2.528698
  N    12.323041  9.023760  2.401993
  N    12.504850 12.438709  2.630534
  N    10.383799  7.634607  1.435013
  N    10.507383 11.653525  1.234005
  N     9.738849  8.400981  5.250463
  N     9.671291 11.770347  4.994075
  S     9.025368  7.749443  3.887571
  S     8.900638 11.404340  3.596214
  S    11.942592  8.224324  0.994075
  S    12.083863 12.205980  0.986492
  S    11.223749  9.142969  4.946008
  S    11.090335 12.579085  4.970230
