16  
    
  C    12.723687  8.908840  3.585550
  C    12.347063 12.832052  3.859587
  C    11.513128  8.422626  3.016555
  C    11.208968 12.256057  3.193218
  N    13.744109  8.964082  2.699522
  N    13.344590 13.181986  3.048969
  N    11.501058  8.309294  1.664345
  N    11.387835 12.069226  1.903833
  N    10.917359  8.604447  5.575590
  N    10.469168 12.512220  5.577976
  S    10.112728  8.192477  4.083817
  S     9.945996 11.740384  4.202814
  S    13.019836  8.700960  1.210739
  S    12.881167 12.572107  1.534734
  S    12.495086  9.123598  5.307616
  S    12.076648 13.145931  5.578511
