16  
    
  C    10.130674  7.719139  3.045620
  C    10.526042 11.823886  2.981910
  C     8.923972  7.345203  2.346327
  C     9.336232 11.070696  2.587303
  N    11.157055  7.961894  2.218279
  N    11.438168 11.957315  2.017452
  N     9.051699  7.292698  0.998355
  N     9.287284 10.698683  1.306719
  N     8.435452  7.060756  4.869793
  N     9.164556 11.469488  5.119690
  S     7.649358  6.876953  3.386497
  S     8.197028 10.836830  3.913160
  S    10.666476  7.624567  0.679640
  S    10.765562 11.279944  0.653137
  S    10.089679  7.556870  4.756724
  S    10.642965 12.044751  4.709967
