16  
    
  C     8.227715  6.569572  2.288964
  C     8.054949 10.123398  2.410497
  C     7.027746  5.987237  1.695988
  C     6.882848  9.468359  1.816150
  N     9.274387  6.611899  1.450659
  N     9.030909 10.443255  1.600376
  N     7.114019  5.772649  0.376397
  N     7.023811  9.237260  0.516202
  N     6.396265  6.347795  4.176863
  N     6.289851  9.910316  4.264579
  S     5.656541  5.947739  2.762773
  S     5.538971  9.384063  2.883307
  S     8.665266  6.062369 -0.031101
  S     8.537500  9.807369  0.109249
  S     8.012572  6.816790  4.004805
  S     7.884633 10.297625  4.146838
