16  
    
  C     9.213425  6.895070  2.785850
  C     9.680089 10.932637  2.701755
  C     8.028928  6.412426  2.092228
  C     8.560102 10.173665  2.045655
  N    10.226109  7.193071  1.998430
  N    10.610996 11.296225  1.824852
  N     8.171808  6.382707  0.759539
  N     8.688466 10.129735  0.737386
  N     7.522414  6.398424  4.666377
  N     8.086880 10.101884  4.589887
  S     6.747226  6.049083  3.216502
  S     7.352620  9.616142  3.191219
  S     9.698157  6.991602  0.453992
  S    10.075278 10.857411  0.272361
  S     9.058699  7.000619  4.506560
  S     9.545258 10.911966  4.418171
