16  
    
  C    12.238808  9.160596  3.593400
  C    12.476058 12.882636  3.494068
  C    11.227581  8.472138  2.898544
  C    11.281134 12.322968  2.935521
  N    13.230986  9.654441  2.869637
  N    13.454627 13.030557  2.612806
  N    11.506077  8.381493  1.597346
  N    11.291994 12.195115  1.613962
  N    10.609880  8.377534  5.481855
  N    10.856015 12.692898  5.494513
  S     9.926298  7.917276  3.965175
  S     9.952447 12.213299  4.163013
  S    12.899623  9.164880  1.336692
  S    12.867457 12.546371  1.105097
  S    12.115292  9.214108  5.281492
  S    12.508756 12.898641  5.244182
