16  
    
  C    12.711368  9.066295  3.335626
  C    12.693948 12.873260  3.499436
  C    11.400727  8.742867  2.746614
  C    11.586615 12.260539  2.779818
  N    13.747231  9.211178  2.511064
  N    13.816456 13.051780  2.796902
  N    11.553318  8.571669  1.444855
  N    11.819791 12.098246  1.488128
  N    11.121032  8.883070  5.361402
  N    10.844709 12.502237  5.227258
  S    10.239386  8.496044  4.057753
  S    10.202287 12.045428  3.807811
  S    13.138668  8.765511  1.018825
  S    13.356977 12.715334  1.201766
  S    12.624809  9.491555  5.046113
  S    12.339936 13.172179  5.131237
