16  
    
  C     9.711407  7.554135  2.831339
  C     9.922366 11.186146  2.769277
  C     8.553103  7.006043  2.109591
  C     8.647928 10.827995  2.119773
  N    10.801209  7.817219  2.114819
  N    10.928728 11.331286  1.929233
  N     8.810314  6.842006  0.814939
  N     8.735954 10.690143  0.812357
  N     7.811299  7.479071  4.589594
  N     8.211964 11.187842  4.618782
  S     7.193388  6.732733  3.210912
  S     7.348658 10.859777  3.231424
  S    10.382115  7.393806  0.567362
  S    10.310109 11.002069  0.370032
  S     9.402470  7.954005  4.462779
  S     9.868824 11.212672  4.473127
