16  
    
  C     6.864520  5.714880  1.993514
  C     7.221045  9.966636  2.403926
  C     5.780324  5.313173  1.144773
  C     5.990884  9.462738  1.808560
  N     8.068979  5.823419  1.411349
  N     8.204420 10.166826  1.534395
  N     6.169160  4.921432 -0.063896
  N     6.025955  9.383553  0.486987
  N     4.679636  6.027461  3.398095
  N     5.501767  9.840417  4.319654
  S     4.287031  5.208340  1.955672
  S     4.710720  9.287314  2.887007
  S     7.799181  5.213861 -0.121159
  S     7.634611  9.746011  0.066856
  S     6.327042  6.101254  3.587751
  S     7.080759 10.095648  4.165459
