16  
    
  C     7.296394  5.862684  2.221545
  C     7.596617  9.599461  2.405673
  C     6.119754  5.501891  1.427686
  C     6.323966  9.337032  1.692247
  N     8.366983  6.261413  1.515945
  N     8.660246  9.743200  1.641208
  N     6.389468  5.357182  0.135526
  N     6.497249  9.317527  0.373078
  N     5.306087  5.664032  3.866262
  N     5.737553  9.700480  4.156834
  S     4.693277  5.276034  2.413075
  S     4.986301  9.324697  2.792937
  S     7.998003  5.910340 -0.101523
  S     8.060746  9.543185  0.041885
  S     6.940030  6.056132  3.959381
  S     7.399731  9.791951  4.136474
