16  
    
  C     4.638794  5.133194  1.957570
  C     4.647293  8.590520  1.398190
  C     3.456015  4.667685  1.276170
  C     3.468923  8.165873  0.750414
  N     5.640205  5.302537  1.097058
  N     5.710287  8.703637  0.608572
  N     3.516463  4.492988 -0.034598
  N     3.674828  7.887544 -0.529482
  N     2.681841  4.813191  3.702152
  N     2.852484  8.322114  3.235897
  S     2.018151  4.491732  2.209009
  S     2.069094  7.967626  1.841609
  S     5.054969  4.987126 -0.466179
  S     5.235067  8.266430 -0.895008
  S     4.257186  5.248282  3.685063
  S     4.405463  8.851581  3.135241
