16  
    
  C     4.182724  4.866294  1.654205
  C     4.086388  8.308323  1.525439
  C     2.933973  4.481921  1.013065
  C     2.870246  7.965353  0.822755
  N     5.214961  4.798722  0.778101
  N     5.101292  8.593873  0.724049
  N     2.984831  4.390888 -0.302131
  N     3.046781  7.643810 -0.470323
  N     2.374726  4.717962  3.443478
  N     2.204007  8.356919  3.254098
  S     1.550631  4.363880  2.088827
  S     1.453812  7.947037  1.854087
  S     4.543189  4.408937 -0.702954
  S     4.617335  8.076152 -0.825357
  S     4.015873  5.003975  3.359837
  S     3.859277  8.649112  3.218446
