16  
    
  C     5.185151  5.364035  1.820522
  C     5.099016  8.847089  1.311593
  C     3.876501  5.074355  1.299251
  C     3.858840  8.284948  0.828489
  N     6.163432  5.342415  0.910916
  N     6.102973  8.898881  0.433532
  N     3.921300  4.525513  0.062579
  N     3.851922  8.074822 -0.483900
  N     3.543636  5.544065  3.751331
  N     3.484824  8.909258  3.283869
  S     2.589962  5.282411  2.488157
  S     2.581854  8.332816  2.010803
  S     5.442992  4.849066 -0.483961
  S     5.374056  8.445707 -1.002852
  S     5.157740  5.905734  3.467378
  S     5.099051  9.144388  3.019701
