16  
    
  C    11.818679  8.565549  3.428785
  C    11.604687 11.996888  3.406019
  C    10.594036  8.255929  2.748010
  C    10.380996 11.619543  2.694248
  N    12.896819  8.690255  2.676746
  N    12.717199 12.077316  2.660376
  N    10.746463  8.121376  1.467479
  N    10.510899 11.601975  1.366547
  N     9.924966  8.432579  5.214578
  N     9.891894 11.621595  5.165541
  S     9.177706  8.268350  3.768810
  S     9.038138 11.368570  3.808433
  S    12.400910  8.387919  1.124693
  S    12.191036 11.818272  1.112364
  S    11.569686  8.765306  5.103182
  S    11.450474 11.942208  5.110707
