16  
    
  C     7.483885  6.002720  2.184251
  C     7.925427  9.881352  2.214938
  C     6.253643  5.558554  1.560404
  C     6.656924  9.459978  1.684523
  N     8.469325  6.322917  1.353486
  N     8.882872  9.959489  1.318097
  N     6.335430  5.429620  0.241169
  N     6.595068  9.293234  0.384366
  N     5.727348  5.738435  4.034338
  N     6.410812  9.354777  4.183892
  S     5.007417  5.155862  2.635936
  S     5.398090  9.223962  2.869427
  S     7.801409  5.987475 -0.138360
  S     8.147271  9.602833 -0.142857
  S     7.281434  6.128252  3.894727
  S     7.861282 10.028999  3.967817
