16  
    
  C     3.481669  4.771136  1.502510
  C     3.597906  8.269176  1.300352
  C     2.357291  4.049329  0.872696
  C     2.264487  8.148820  0.694117
  N     4.577044  4.780729  0.721040
  N     4.547971  8.439556  0.388555
  N     2.502569  3.787254 -0.404171
  N     2.254463  8.095022 -0.630199
  N     1.711160  4.222132  3.322771
  N     1.882839  8.124528  3.260275
  S     1.032188  3.674054  1.880294
  S     1.063974  7.793850  1.815076
  S     3.995763  4.311590 -0.840789
  S     3.817154  8.304174 -1.112471
  S     3.189580  4.880127  3.200035
  S     3.469019  8.613551  2.995471
