16  
    
  C    10.051736  7.760046  3.010970
  C    10.519028 11.809451  2.973909
  C     8.888193  7.359817  2.267822
  C     9.367735 11.054911  2.581174
  N    11.112135  7.933615  2.242943
  N    11.393484 11.931384  2.000398
  N     9.079696  7.230235  0.954215
  N     9.308228 10.704704  1.312518
  N     8.359203  7.009740  4.866689
  N     9.145883 11.444845  5.117955
  S     7.547363  6.856020  3.340240
  S     8.172506 10.841054  3.864377
  S    10.629739  7.629997  0.699874
  S    10.794035 11.236352  0.648737
  S     9.997703  7.550287  4.738318
  S    10.633635 12.020777  4.727424
