16  
    
  C     7.580316  6.652311  2.309988
  C     7.698612 10.062525  2.242341
  C     6.322945  6.083711  1.839674
  C     6.463538  9.729404  1.514940
  N     8.608464  6.652262  1.440745
  N     8.840813 10.208257  1.559215
  N     6.362043  5.799702  0.524822
  N     6.745623  9.585034  0.203415
  N     5.998635  6.615849  4.376073
  N     5.834502 10.025791  4.032069
  S     5.116479  6.179719  3.081640
  S     5.077931  9.807230  2.596961
  S     7.915692  6.044258  0.065475
  S     8.355304  9.776928 -0.012468
  S     7.628550  6.900408  4.002357
  S     7.516008 10.192945  3.947283
