16  
    
  C     4.516138  4.996438  1.713872
  C     4.085496  8.793885  1.651735
  C     3.238744  4.813786  1.100388
  C     3.053645  8.213920  0.807150
  N     5.538472  5.079001  0.860018
  N     5.206846  9.133420  1.019593
  N     3.280030  4.578542 -0.190237
  N     3.304589  8.317673 -0.483798
  N     2.711112  4.937234  3.549792
  N     2.192309  8.105388  3.206072
  S     1.905235  4.683071  2.107260
  S     1.641863  7.692485  1.676091
  S     4.832984  4.809679 -0.660538
  S     4.826440  8.916012 -0.621312
  S     4.377643  5.302682  3.444507
  S     3.864975  8.463525  3.316151
