16  
    
  C    11.840153  8.801746  3.332937
  C    11.488843 12.441522  3.166340
  C    10.554613  8.296487  2.836465
  C    10.456520 11.630595  2.568593
  N    12.807952  8.812987  2.391988
  N    12.530063 12.674700  2.366557
  N    10.565747  7.910163  1.549062
  N    10.644022 11.374623  1.295764
  N    10.309410  8.551991  5.401055
  N     9.823933 11.827632  5.002216
  S     9.398072  8.180524  4.120493
  S     9.119135 11.310595  3.611275
  S    12.087161  8.261329  0.979963
  S    12.080675 12.015865  0.893774
  S    11.871344  9.133885  5.086403
  S    11.299131 12.512396  4.908617
