16  
    
  C     8.523906  6.553371  2.389732
  C     8.423940 10.297785  2.395153
  C     7.287319  6.234757  1.782970
  C     7.192597  9.910741  1.775252
  N     9.487189  6.897317  1.526746
  N     9.458312 10.396250  1.570685
  N     7.317130  6.059514  0.454321
  N     7.224310  9.684098  0.448069
  N     6.830657  6.185394  4.358940
  N     6.604095 10.147194  4.290515
  S     6.039485  5.933844  2.919592
  S     5.906766  9.552819  2.898937
  S     8.793491  6.537934 -0.020532
  S     8.818786  9.840660  0.033776
  S     8.354611  6.769243  4.140622
  S     8.240830 10.551032  4.139402
