16  
    
  C     7.675642  6.351781  2.291002
  C     7.796780 10.002679  2.442604
  C     6.339627  6.018831  1.840599
  C     6.608565  9.598657  1.761531
  N     8.539520  6.537743  1.303401
  N     8.842043 10.181745  1.625265
  N     6.236615  5.791638  0.549705
  N     6.700658  9.572843  0.465100
  N     6.084803  6.334585  4.322465
  N     5.853413  9.869668  4.169977
  S     5.149854  5.977312  3.036408
  S     5.198966  9.394239  2.723018
  S     7.765885  6.150322 -0.111861
  S     8.307756  9.870894  0.075094
  S     7.635505  6.654013  4.012305
  S     7.422083 10.306404  4.156319
