16  
    
  C    12.333640  9.268982  3.509790
  C    12.485420 12.699380  3.457226
  C    11.292037  8.620264  2.790524
  C    11.231864 12.129661  2.992379
  N    13.351512  9.638670  2.727105
  N    13.404644 12.892765  2.513203
  N    11.517252  8.521362  1.495571
  N    11.131369 12.075785  1.674136
  N    10.570901  8.355223  5.295153
  N    10.854071 12.517330  5.504236
  S    10.005010  7.950001  3.692827
  S    10.005745 12.104202  4.167196
  S    12.900728  9.212495  1.150393
  S    12.669650 12.466831  1.092031
  S    12.014682  9.190575  5.198215
  S    12.420412 13.092663  5.194386
