16  
    
  C     7.641099  6.247571  2.251280
  C     7.709697 10.138372  2.445065
  C     6.341879  5.888513  1.715484
  C     6.551913  9.538024  1.762874
  N     8.566992  6.402457  1.344110
  N     8.751671 10.340393  1.669588
  N     6.343053  5.779603  0.410834
  N     6.780136  9.354799  0.492416
  N     5.992584  6.331883  4.180836
  N     6.079861  9.542297  4.277771
  S     5.089798  5.676755  2.926666
  S     5.250479  9.255475  2.885708
  S     7.912640  6.205355 -0.134658
  S     8.346620  9.942518  0.153707
  S     7.644131  6.490204  3.943636
  S     7.560511 10.268820  4.147297
