16  
    
  C     9.012737  7.065818  2.237638
  C     9.008098 10.574033  2.377856
  C     7.790542  6.647914  1.602230
  C     7.780100 10.135798  1.748264
  N    10.053626  7.242760  1.427415
  N    10.062516 10.744648  1.550275
  N     7.892607  6.296743  0.325777
  N     7.945700  9.807776  0.484014
  N     7.281014  6.728295  4.175551
  N     7.234676 10.485727  4.248902
  S     6.525789  6.326842  2.737508
  S     6.440171 10.099159  2.846177
  S     9.463436  6.686399 -0.115411
  S     9.435051 10.291637  0.027359
  S     8.829246  7.211367  4.009882
  S     8.873427 10.835617  4.120345
