16  
    
  C     6.790192  5.852256  1.477791
  C     7.231056 10.024312  2.434067
  C     5.661984  5.142202  0.989290
  C     5.999369  9.531011  1.932647
  N     7.873605  5.856069  0.715319
  N     8.235255 10.024068  1.583508
  N     5.901839  4.711267 -0.244349
  N     6.057801  9.175136  0.673058
  N     5.016726  5.777838  3.424581
  N     5.631996  9.694166  4.496252
  S     4.355500  4.929790  2.128419
  S     4.689647  9.491985  3.148926
  S     7.462956  5.139916 -0.699567
  S     7.591180  9.512466  0.126515
  S     6.561577  6.360206  3.128884
  S     7.218817 10.301137  4.179011
