16  
    
  C    12.437602  8.936424  3.753919
  C    12.512065 12.860093  3.451409
  C    11.185893  8.416414  3.207850
  C    11.304848 12.265238  2.851892
  N    13.448665  9.051151  2.857017
  N    13.509889 13.081503  2.602175
  N    11.227252  8.023903  1.927912
  N    11.404563 12.169228  1.537518
  N    10.602583  8.903889  5.711151
  N    10.763265 12.655763  5.385042
  S     9.829531  8.440943  4.206286
  S    10.018774 12.167749  3.988938
  S    12.751397  8.512508  1.412046
  S    12.954745 12.512555  1.127760
  S    12.215123  9.324121  5.410861
  S    12.423078 12.778645  5.193086
