16  
    
  C     9.197257  6.877075  2.347787
  C     9.024749 11.134685  2.884724
  C     7.919431  6.505405  1.739077
  C     7.839655 10.562927  2.273625
  N    10.263827  6.864502  1.575809
  N    10.086634 11.215045  2.090422
  N     8.044023  6.201913  0.464891
  N     7.990126 10.287473  1.004315
  N     7.432857  6.806651  4.197013
  N     7.339094 10.809785  4.791112
  S     6.593835  6.363699  2.812514
  S     6.567443 10.303945  3.400674
  S     9.643459  6.435862  0.055498
  S     9.503917 10.684221  0.583516
  S     9.022551  7.290327  4.031928
  S     8.927814 11.382496  4.596380
