16  
    
  C     9.864048  7.580533  2.620168
  C     9.857610 11.226054  2.981759
  C     8.609195  7.280159  2.023321
  C     8.753970 10.679249  2.286370
  N    10.887231  7.814220  1.812069
  N    10.880386 11.611303  2.201662
  N     8.687723  7.193551  0.692527
  N     8.995478 10.452377  0.980051
  N     8.149990  7.400963  4.570005
  N     8.064737 10.695432  4.773844
  S     7.288414  7.135767  3.176711
  S     7.381061 10.371821  3.292787
  S    10.264204  7.487182  0.307981
  S    10.466369 11.073918  0.625136
  S     9.806857  7.723560  4.338233
  S     9.581082 11.458652  4.685848
