16  
    
  C    11.388034  8.256447  3.388280
  C    11.390047 12.034566  3.281879
  C    10.138838  7.824752  2.676989
  C    10.075726 11.688990  2.872943
  N    12.453718  8.240720  2.612046
  N    12.360704 11.987946  2.383236
  N    10.286949  7.542398  1.405762
  N    10.013223 11.417045  1.579106
  N     9.438338  8.343815  5.074710
  N     9.836081 12.113737  5.429844
  S     8.720773  7.776948  3.702505
  S     8.850916 11.821254  4.094042
  S    11.928813  7.859984  1.065313
  S    11.561517 11.380607  0.957083
  S    11.123834  8.591502  5.046083
  S    11.466979 12.472178  4.931682
