16  
    
  C     7.712148  6.724575  2.416667
  C     7.830051 10.122430  2.057291
  C     6.556706  6.152324  1.749865
  C     6.551846  9.900196  1.437455
  N     8.837618  6.647056  1.685427
  N     8.862840 10.011527  1.193537
  N     6.809995  5.878248  0.438934
  N     6.605031  9.701140  0.117685
  N     5.880020  6.584704  4.249233
  N     6.157039 10.298513  3.975207
  S     5.121524  6.102383  2.771024
  S     5.256099  9.914138  2.609028
  S     8.420280  6.141639  0.161171
  S     8.293891  9.878360 -0.287751
  S     7.476739  7.025681  4.142286
  S     7.779592 10.546785  3.719594
