16  
    
  C     9.967922  7.708839  2.990079
  C    10.575040 11.653933  3.004218
  C     8.785227  7.287283  2.269346
  C     9.344221 11.083571  2.545858
  N    11.063527  7.944184  2.266230
  N    11.436258 11.944866  2.043714
  N     9.015610  7.129563  0.965530
  N     9.381581 10.702427  1.283538
  N     8.242315  7.012399  4.687081
  N     9.036204 11.380852  5.111973
  S     7.463119  6.838193  3.272656
  S     8.163397 10.865403  3.800369
  S    10.622117  7.652320  0.695838
  S    10.811506 11.176086  0.662141
  S     9.750806  7.547414  4.681042
  S    10.587748 11.995664  4.725377
