16  
    
  C    11.078965  8.148630  2.976412
  C    10.853262 11.815521  3.054971
  C     9.843007  7.692599  2.325020
  C     9.683454 11.328369  2.415313
  N    12.044721  8.357928  2.070109
  N    11.882896 12.125533  2.264089
  N     9.916189  7.593728  1.012821
  N     9.912891 11.105132  1.128169
  N     9.322337  7.817784  4.801471
  N     9.009009 11.595585  4.860660
  S     8.481180  7.553633  3.417429
  S     8.281408 11.120304  3.471021
  S    11.432924  7.988651  0.593412
  S    11.341246 11.715398  0.721277
  S    10.778339  8.499377  4.659716
  S    10.579940 12.191085  4.707514
