16  
    
  C     4.381389  5.077870  1.355739
  C     4.258206  8.498464  1.662413
  C     3.125122  4.621314  0.773311
  C     3.090375  8.237937  0.805284
  N     5.401939  5.069907  0.508659
  N     5.326342  8.860426  0.965336
  N     3.160678  4.468162 -0.540193
  N     3.355624  8.204940 -0.496698
  N     2.782036  5.018227  3.238578
  N     2.348327  7.747536  3.170619
  S     1.826340  4.635869  1.927228
  S     1.693558  7.760684  1.657226
  S     4.763370  4.895287 -1.025377
  S     4.893706  8.709627 -0.638515
  S     4.455697  5.111983  3.066358
  S     3.815199  8.547819  3.307720
