16  
    
  C     9.988187  7.751415  2.980375
  C    10.537274 11.721096  3.003778
  C     8.798146  7.330870  2.260374
  C     9.310306 11.062392  2.591878
  N    11.108675  7.930634  2.252923
  N    11.403049 11.942841  1.993075
  N     9.060046  7.164975  0.957836
  N     9.379063 10.719045  1.303690
  N     8.313150  6.998892  4.786069
  N     9.080159 11.404131  5.120977
  S     7.489357  6.845666  3.302791
  S     8.174463 10.855254  3.819808
  S    10.622097  7.645457  0.704683
  S    10.803840 11.194080  0.649070
  S     9.866693  7.544813  4.712741
  S    10.616571 12.007590  4.729173
