16  
    
  C    12.045252  8.555295  3.282988
  C    12.082338 12.169526  3.232830
  C    10.729240  8.334632  2.713801
  C    10.860457 11.692538  2.614524
  N    12.996563  8.691938  2.321382
  N    13.086807 12.218700  2.374665
  N    10.703076  8.226074  1.382508
  N    10.888122 11.539309  1.306384
  N    10.409243  8.474892  5.340084
  N    10.252711 11.939491  5.126644
  S     9.489375  8.095141  3.913951
  S     9.538914 11.562817  3.648289
  S    12.292236  8.374189  0.883616
  S    12.424427 11.927848  0.882402
  S    12.012912  8.684190  5.008503
  S    11.917796 12.390791  4.936113
