16  
    
  C     5.476139  5.294723  1.809146
  C     5.074383  9.103532  1.686720
  C     4.178613  5.192625  1.180375
  C     3.875071  8.520768  1.055282
  N     6.434468  5.472560  0.903711
  N     6.111161  9.244798  0.868871
  N     4.207470  4.961366 -0.135765
  N     3.996522  8.319509 -0.260568
  N     3.767585  5.364605  3.667304
  N     3.353255  8.749987  3.524433
  S     2.866244  5.210992  2.266312
  S     2.579251  8.312708  2.165016
  S     5.775547  5.229633 -0.596688
  S     5.577789  8.783080 -0.619438
  S     5.387765  5.419389  3.575827
  S     4.989922  8.948100  3.397676
