16  
    
  C     7.213821  6.027331  2.167092
  C     7.412721  9.712918  2.431938
  C     6.087593  5.522085  1.396326
  C     6.194218  9.442751  1.747484
  N     8.340753  6.238470  1.499625
  N     8.562118  9.696187  1.725086
  N     6.353423  5.319495  0.105012
  N     6.385389  9.270766  0.431885
  N     5.246041  5.645144  3.812294
  N     5.593562  9.493104  4.227457
  S     4.666923  5.190169  2.331805
  S     4.798683  9.458605  2.818209
  S     7.955108  5.801673 -0.075286
  S     7.997427  9.430046  0.139939
  S     6.882084  6.191879  3.860474
  S     7.255408  9.905801  4.183017
