16  
    
  C    12.800935  9.014103  3.466371
  C    12.748842 12.760023  3.418312
  C    11.550247  8.445141  3.021431
  C    11.523504 12.337156  2.761218
  N    13.655656  9.371567  2.497151
  N    13.798723 12.961398  2.640356
  N    11.490772  8.327667  1.677043
  N    11.770287 12.038455  1.475787
  N    11.097469  9.091331  5.525195
  N    11.040764 12.349426  5.287455
  S    10.293395  8.369834  4.210305
  S    10.276299 11.942371  3.882418
  S    12.979829  8.876128  1.086989
  S    13.282644 12.527765  1.062112
  S    12.737550  9.283817  5.209223
  S    12.587756 12.871834  5.162231
