16  
    
  C     6.666823  5.676088  1.932233
  C     6.666977  9.585298  1.918411
  C     5.341789  5.491016  1.339956
  C     5.387812  9.166093  1.373168
  N     7.610815  5.839049  1.008453
  N     7.641228  9.696213  1.021059
  N     5.322978  5.311420  0.017630
  N     5.367071  8.991521  0.058124
  N     4.992718  5.862460  3.896969
  N     4.982046  9.268393  3.908250
  S     4.049246  5.436810  2.516824
  S     4.155969  8.972102  2.523669
  S     6.904293  5.518852 -0.473962
  S     6.892307  9.240437 -0.410879
  S     6.622056  5.984823  3.668290
  S     6.576645  9.756421  3.649259
