16  
    
  C     8.636668  7.274975  2.684688
  C     8.894701 11.007779  2.272333
  C     7.482796  6.486529  2.157933
  C     7.718439 10.520522  1.533372
  N     9.633056  7.487257  1.851644
  N     9.948239 11.409984  1.527398
  N     7.540218  6.328998  0.832032
  N     7.883764 10.639422  0.223709
  N     7.151955  7.001481  4.698226
  N     7.227456 10.437059  4.115088
  S     6.367057  6.181717  3.446409
  S     6.462435 10.096804  2.676931
  S     9.104970  6.856147  0.407694
  S     9.397965 11.169598 -0.075520
  S     8.714485  7.530939  4.335502
  S     8.778662 11.115050  3.978248
