16  
    
  C    12.918975  9.347689  3.473856
  C    12.805529 13.009086  3.567919
  C    11.717098  8.906232  2.824534
  C    11.570324 12.486364  3.020052
  N    13.915237  9.452481  2.625622
  N    13.795502 12.893348  2.694684
  N    11.834168  8.589889  1.541346
  N    11.602825 12.200207  1.718885
  N    11.031268  9.012107  5.280482
  N    11.082232 12.838373  5.476366
  S    10.345175  8.504433  3.910926
  S    10.173746 12.407860  4.098107
  S    13.443996  8.813064  1.123106
  S    13.162636 12.447980  1.247495
  S    12.510878  9.759541  5.185414
  S    12.734229 13.204739  5.364554
