16  
    
  C     7.436562  5.948122  2.180459
  C     7.866892  9.823267  2.200706
  C     6.200700  5.587311  1.531705
  C     6.582424  9.429798  1.660935
  N     8.450083  6.320300  1.375943
  N     8.879205  9.978050  1.356943
  N     6.282305  5.447685  0.217897
  N     6.631080  9.304414  0.335930
  N     5.684318  5.680238  4.009084
  N     6.350920  9.345761  4.170654
  S     4.971775  5.163685  2.655684
  S     5.367672  9.250872  2.888470
  S     7.851209  5.981017 -0.151337
  S     8.145417  9.582451 -0.145263
  S     7.260899  6.124981  3.908035
  S     7.873057  9.993113  3.968555
