16  
    
  C    11.327199  8.513392  3.338666
  C    11.434756 12.244270  3.318356
  C    10.161885  7.873672  2.681038
  C    10.190519 11.750159  2.848382
  N    12.406983  8.632174  2.569325
  N    12.422713 12.192452  2.406951
  N    10.371187  7.488580  1.439264
  N    10.233338 11.260121  1.607080
  N     9.491787  8.318966  5.168767
  N     9.810123 12.190254  5.417334
  S     8.799413  7.840288  3.736011
  S     8.886118 11.810771  4.018718
  S    11.979649  7.880637  1.132686
  S    11.733452 11.581686  0.980360
  S    11.100768  8.805980  5.067329
  S    11.360843 12.812085  4.957024
