16  
    
  C     5.776325  5.005528  1.847054
  C     5.714763  9.386941  1.978772
  C     4.628813  4.603258  1.111729
  C     4.624037  8.625542  1.487258
  N     6.888308  5.210896  1.147368
  N     6.708209  9.577518  1.096922
  N     4.933059  4.290460 -0.145000
  N     4.669932  8.352728  0.199342
  N     3.922625  4.711940  3.606193
  N     4.163763  8.804054  3.950123
  S     3.240230  4.296463  2.161247
  S     3.333467  8.276862  2.594436
  S     6.519878  4.730578 -0.387848
  S     6.161828  8.972197 -0.355108
  S     5.531370  5.256026  3.549623
  S     5.577045  9.521659  3.722186
