16  
    
  C     4.459087  5.053832  1.610593
  C     4.276548  8.659675  1.484613
  C     3.212968  4.702317  0.965752
  C     3.105323  8.109036  0.901399
  N     5.545167  5.147523  0.874961
  N     5.307401  8.779470  0.672370
  N     3.426119  4.454343 -0.317811
  N     3.228311  7.752912 -0.366874
  N     2.787053  4.931463  3.532759
  N     2.588404  8.344578  3.371849
  S     1.910628  4.611148  2.171213
  S     1.761172  7.939618  2.049686
  S     5.031774  4.876268 -0.688846
  S     4.777447  8.145850 -0.829462
  S     4.356800  5.470570  3.266457
  S     4.161115  8.863407  3.232269
