16  
    
  C     4.735095  5.003462  1.979390
  C     4.722762  8.870978  1.662858
  C     3.529793  4.615056  1.260234
  C     3.466451  8.588751  1.079041
  N     5.846642  4.989053  1.243298
  N     5.664089  9.222933  0.774145
  N     3.737744  4.539111 -0.075339
  N     3.476436  8.514963 -0.249823
  N     2.942428  4.811073  3.772233
  N     3.105819  8.184550  3.645051
  S     2.121611  4.445066  2.407861
  S     2.257327  7.985011  2.217416
  S     5.397825  4.799923 -0.308208
  S     5.002350  9.015633 -0.707429
  S     4.586023  5.005842  3.657337
  S     4.631424  8.860425  3.433110
