16  
    
  C    10.707311  8.314422  3.084835
  C    10.773961 11.814054  3.122577
  C     9.514145  7.748633  2.496692
  C     9.614137 11.292323  2.441570
  N    11.690660  8.560471  2.209389
  N    11.905438 11.940656  2.397411
  N     9.632970  7.576856  1.155495
  N     9.901470 11.096956  1.146068
  N     9.020029  7.956356  5.008464
  N     8.807638 11.710863  4.893710
  S     8.191695  7.686913  3.630105
  S     8.155621 11.335929  3.402433
  S    11.186957  8.044510  0.771797
  S    11.394111 11.580828  0.827540
  S    10.510761  8.731123  4.738222
  S    10.421008 12.071576  4.805044
