16  
    
  C     9.854831  7.345209  2.523193
  C    10.380773 11.273447  2.531633
  C     8.670033  6.720754  2.070462
  C     9.143256 10.887179  1.947540
  N    10.760321  7.634538  1.600853
  N    11.355596 11.511664  1.663427
  N     8.709038  6.499980  0.778051
  N     9.201376 10.646779  0.635777
  N     8.058639  7.296978  4.474420
  N     8.654983 11.064227  4.477074
  S     7.341310  6.553847  3.137039
  S     7.811144 10.883607  3.055900
  S    10.116236  7.063563  0.175758
  S    10.720097 11.124783  0.225273
  S     9.572070  7.928656  4.174530
  S    10.272921 11.522533  4.304695
