16  
    
  C     7.567030  6.561650  2.326361
  C     7.660231 10.048120  2.321819
  C     6.280289  6.197237  1.829028
  C     6.511087  9.711751  1.555925
  N     8.511583  6.664283  1.410047
  N     8.766328 10.139262  1.594014
  N     6.266293  5.757109  0.564133
  N     6.728772  9.536924  0.256038
  N     6.143094  6.500191  4.359425
  N     5.874876 10.048727  4.044304
  S     5.077750  6.136932  3.066609
  S     5.078132  9.693783  2.612724
  S     7.886785  6.040719  0.022965
  S     8.368825  9.831171  0.039084
  S     7.680941  6.840670  4.015275
  S     7.501414 10.217324  4.001578
