16  
    
  C     9.682708  7.556172  2.788008
  C     9.989940 11.130952  2.665932
  C     8.552738  6.918956  2.169007
  C     8.725969 10.839137  2.070147
  N    10.731876  7.783588  1.987058
  N    11.008582 11.323107  1.798444
  N     8.753266  6.756204  0.878242
  N     8.781731 10.688131  0.730398
  N     7.830909  7.293313  4.611821
  N     8.241549 11.155937  4.634129
  S     7.186983  6.692460  3.197208
  S     7.422673 10.817409  3.232658
  S    10.286962  7.215508  0.500373
  S    10.354847 11.047466  0.341543
  S     9.312657  8.029488  4.452202
  S     9.919088 11.331228  4.437453
