16  
    
  C     7.315196  5.983800  2.246752
  C     7.686847  9.588958  2.390638
  C     6.202279  5.465132  1.472865
  C     6.468096  9.309276  1.724206
  N     8.381784  6.218175  1.476355
  N     8.691499  9.770807  1.523787
  N     6.365131  5.432047  0.143294
  N     6.456352  9.311489  0.393951
  N     5.347174  5.672346  3.923350
  N     5.826889  9.765640  4.180287
  S     4.718390  5.253835  2.380644
  S     5.049836  9.278870  2.728678
  S     7.918253  5.905224 -0.094002
  S     8.077247  9.589622 -0.000005
  S     7.016819  6.032143  3.995405
  S     7.501041  9.770149  4.144284
