16  
    
  C     5.993474  5.569152  2.158911
  C     5.951234  9.188987  1.548889
  C     4.723576  5.475333  1.532030
  C     4.770555  8.710999  0.933855
  N     6.972918  5.546863  1.283555
  N     6.980391  9.273765  0.727251
  N     4.747987  5.327638  0.205077
  N     4.920779  8.478430 -0.369164
  N     4.273540  5.810372  4.068171
  N     4.267390  9.060300  3.451490
  S     3.417085  5.740787  2.686999
  S     3.410868  8.765745  2.031245
  S     6.348645  5.311000 -0.227237
  S     6.546449  8.838829 -0.764201
  S     6.014102  5.870042  3.885407
  S     5.822321  9.502985  3.271654
