16  
    
  C     4.377659  5.037499  1.354421
  C     4.247703  8.517907  1.669489
  C     3.088153  4.629338  0.780646
  C     3.087829  8.261349  0.821374
  N     5.404201  5.085939  0.542944
  N     5.309671  8.885174  0.943731
  N     3.178101  4.518360 -0.533752
  N     3.348212  8.225814 -0.469068
  N     2.797781  5.049067  3.285003
  N     2.344816  7.745381  3.123718
  S     1.812112  4.611086  1.998216
  S     1.664289  7.765639  1.648344
  S     4.802037  4.886978 -0.956743
  S     4.881209  8.758052 -0.606979
  S     4.461047  5.116352  3.074342
  S     3.799119  8.552177  3.339223
