16  
    
  C     5.968668  5.730216  2.183698
  C     5.972301  9.201238  1.605694
  C     4.682093  5.561851  1.589062
  C     4.733085  8.941349  0.928649
  N     6.979745  5.440911  1.347877
  N     7.071589  9.184199  0.850442
  N     4.665642  5.405653  0.270292
  N     4.912044  8.624743 -0.345637
  N     4.197432  5.875624  4.037829
  N     4.154076  9.053529  3.396699
  S     3.327877  5.682332  2.656675
  S     3.347519  8.779430  2.004174
  S     6.264504  5.283344 -0.159904
  S     6.503431  8.767696 -0.672205
  S     5.830137  5.819733  3.888907
  S     5.743361  9.529802  3.288023
