16  
    
  C     9.811198  7.451814  2.461663
  C    10.419864 11.179663  2.589485
  C     8.587633  6.895231  1.900593
  C     9.137509 10.926562  1.970749
  N    10.882172  7.532193  1.654707
  N    11.461058 11.193531  1.734857
  N     8.772266  6.625901  0.600136
  N     9.212105 10.921262  0.641745
  N     8.307035  7.189039  4.455589
  N     8.630604 11.114463  4.489318
  S     7.463221  6.555922  3.212036
  S     7.796708 10.886202  3.103020
  S    10.346763  7.057292  0.176677
  S    10.810774 11.081397  0.239281
  S     9.799845  7.825688  4.152927
  S    10.283211 11.332697  4.356892
