16  
    
  C     5.348313  5.578857  1.661104
  C     5.270904  8.957344  1.766286
  C     4.208479  5.090512  0.931723
  C     4.097300  8.657542  1.016483
  N     6.438647  5.733935  0.920499
  N     6.361894  9.215310  1.037205
  N     4.426002  5.102018 -0.406482
  N     4.275224  8.449766 -0.291727
  N     3.536530  5.199601  3.463736
  N     3.313912  8.751650  3.445147
  S     2.766728  5.081284  1.955296
  S     2.745404  8.219248  1.998471
  S     6.054521  5.401549 -0.624644
  S     5.870140  8.850984 -0.516880
  S     5.135561  5.704794  3.391797
  S     4.977180  8.901219  3.485763
