16  
    
  C     6.594652  5.817359  2.030851
  C     6.632358  9.388252  1.917466
  C     5.335912  5.321857  1.503471
  C     5.413044  8.914565  1.265927
  N     7.613842  5.883866  1.169850
  N     7.584470  9.677370  1.043749
  N     5.425008  5.219333  0.179330
  N     5.521079  8.753241 -0.053976
  N     4.882287  5.818916  3.978071
  N     4.848842  9.037333  3.735929
  S     3.967637  5.275716  2.645293
  S     4.077260  8.561268  2.328936
  S     6.949627  5.596657 -0.346587
  S     7.047486  9.280961 -0.503068
  S     6.521850  6.087068  3.748140
  S     6.348185  9.586512  3.635742
