16  
    
  C    12.795960  9.318879  3.482265
  C    12.834572 12.947494  3.488827
  C    11.684507  8.750143  2.790881
  C    11.576648 12.615552  2.903099
  N    13.876240  9.396380  2.727890
  N    13.865104 12.970175  2.641806
  N    11.870737  8.376774  1.535813
  N    11.607409 12.245737  1.615283
  N    11.043256  9.033586  5.307139
  N    11.120880 13.068509  5.444792
  S    10.381993  8.485191  3.862061
  S    10.328803 12.468529  4.144205
  S    13.448292  8.883361  1.195645
  S    13.233977 12.375907  1.269137
  S    12.638007  9.719164  5.080752
  S    12.687761 13.215998  5.198454
