16  
    
  C     5.740013  5.106475  1.953483
  C     5.669253  9.153125  1.976203
  C     4.583530  4.548470  1.346468
  C     4.539825  8.447024  1.455740
  N     6.716490  5.476239  1.122277
  N     6.629530  9.492800  1.128684
  N     4.694039  4.260189  0.049967
  N     4.601097  8.326196  0.132544
  N     3.945826  4.847132  3.846520
  N     4.026153  8.747486  3.967174
  S     3.257359  4.234003  2.378041
  S     3.268177  8.127066  2.650578
  S     6.202852  4.852001 -0.370105
  S     6.022113  9.026429 -0.376859
  S     5.485188  5.526577  3.613951
  S     5.617071  9.300017  3.709959
