16  
    
  C    10.979223  8.043995  3.050349
  C    10.975516 11.670983  2.722904
  C     9.728658  7.435046  2.585376
  C     9.704899 11.202977  2.173213
  N    11.866216  8.255317  2.099503
  N    11.967195 11.889363  1.839937
  N     9.689472  7.166578  1.286030
  N     9.771516 11.004828  0.858044
  N     9.550314  7.550843  5.082032
  N     9.275964 11.290967  4.686583
  S     8.597124  7.066091  3.841518
  S     8.384671 10.977591  3.311996
  S    11.130488  7.702593  0.664276
  S    11.347856 11.439267  0.402487
  S    10.993087  8.216146  4.733097
  S    10.832488 11.817458  4.439397
