16  
    
  C     3.759973  4.733290  1.582230
  C     3.774106  8.378090  1.706373
  C     2.453095  4.537425  0.949542
  C     2.627718  7.873604  1.054037
  N     4.822501  4.619493  0.795062
  N     4.831666  8.525360  0.926106
  N     2.579902  4.426456 -0.376447
  N     2.815657  7.471078 -0.185447
  N     2.081752  4.810881  3.467510
  N     1.959341  8.387121  3.483524
  S     1.108972  4.489073  2.103991
  S     1.197595  7.910451  2.043676
  S     4.180943  4.351863 -0.689143
  S     4.379319  7.857665 -0.523672
  S     3.707623  4.905725  3.276893
  S     3.553510  8.828347  3.378054
