16  
    
  C     7.563048  6.002412  2.187345
  C     7.942159  9.867866  2.279361
  C     6.345026  5.532810  1.531803
  C     6.687013  9.369390  1.683954
  N     8.467491  6.472830  1.317447
  N     8.876921 10.104816  1.385955
  N     6.450547  5.375119  0.202555
  N     6.662328  9.315350  0.338995
  N     5.874235  5.779676  4.087645
  N     6.352922  9.603324  4.267780
  S     5.056761  5.206760  2.733436
  S     5.475234  9.081616  2.958090
  S     7.907649  6.022559 -0.224438
  S     8.212190  9.765969 -0.140569
  S     7.417282  6.207664  3.945068
  S     7.849498 10.153425  4.007199
