16  
    
  C     4.650770  5.079660  1.987698
  C     4.668076  8.657099  1.406969
  C     3.463418  4.706329  1.275813
  C     3.479995  8.133294  0.762896
  N     5.645856  5.334936  1.117444
  N     5.725462  8.729442  0.608317
  N     3.529096  4.513241 -0.024670
  N     3.658863  7.911405 -0.529498
  N     2.655334  4.858917  3.706081
  N     2.862300  8.314134  3.223756
  S     2.017253  4.480189  2.207881
  S     2.095172  7.964584  1.837308
  S     5.083778  4.962983 -0.419842
  S     5.238658  8.306990 -0.883334
  S     4.270853  5.228232  3.693730
  S     4.417361  8.833617  3.132962
