16  
    
  C    12.739931  8.944275  3.816500
  C    12.679118 12.580630  3.828647
  C    11.550643  8.420230  3.234840
  C    11.535788 12.118137  3.094119
  N    13.727495  9.180183  2.984826
  N    13.725994 12.877183  3.092735
  N    11.594995  8.437446  1.909286
  N    11.690252 12.129119  1.765768
  N    11.111417  8.468383  5.821001
  N    10.887529 12.367775  5.604982
  S    10.214645  8.064696  4.465339
  S    10.127069 11.824457  4.129888
  S    13.054876  8.974050  1.482949
  S    13.304294 12.529030  1.506962
  S    12.666289  9.210079  5.503875
  S    12.534765 12.675442  5.526412
