16  
    
  C    11.912170  8.683745  3.456040
  C    11.765518 12.051245  3.194935
  C    10.714402  8.142662  2.853753
  C    10.498246 11.773882  2.556162
  N    12.979871  8.825067  2.680822
  N    12.782375 12.226019  2.385173
  N    10.909962  7.772640  1.564585
  N    10.614582 11.702919  1.221821
  N    10.289448  8.364624  5.455687
  N    10.188000 11.862155  5.244815
  S     9.477082  7.874402  4.045465
  S     9.312554 11.563184  3.823842
  S    12.463928  8.309800  1.184804
  S    12.195489 11.898832  0.872539
  S    11.905145  8.889281  5.204344
  S    11.818803 12.282323  4.894261
