16  
    
  C    11.778648  8.698834  3.459264
  C    11.506356 12.152211  3.279581
  C    10.564711  8.284119  2.856080
  C    10.383464 11.646577  2.517477
  N    12.804889  8.774009  2.611849
  N    12.575761 12.479116  2.548893
  N    10.654935  8.041866  1.553818
  N    10.629638 11.443964  1.231858
  N    10.109956  8.687842  5.395113
  N     9.580730 11.986092  4.984793
  S     9.277146  8.323867  4.027666
  S     9.058424 11.242748  3.550043
  S    12.219413  8.467288  1.065624
  S    12.259278 12.028913  1.027595
  S    11.748121  9.046177  5.194928
  S    11.194533 12.546853  4.906133
