16  
    
  C     9.716579  7.551776  2.836451
  C     9.931167 11.181535  2.770262
  C     8.556350  7.002763  2.111088
  C     8.648762 10.831082  2.111138
  N    10.798609  7.818404  2.113998
  N    10.926130 11.332029  1.924372
  N     8.805176  6.837323  0.813503
  N     8.736721 10.688066  0.809857
  N     7.806598  7.469211  4.596503
  N     8.216300 11.191903  4.622411
  S     7.190819  6.729549  3.212319
  S     7.351280 10.856960  3.229256
  S    10.378234  7.384775  0.564102
  S    10.312515 11.004222  0.367734
  S     9.398820  7.957916  4.456274
  S     9.871301 11.216497  4.470987
