16  
    
  C    12.092982  8.509816  3.630294
  C    12.005327 12.162871  3.271636
  C    10.914295  8.122264  2.929197
  C    10.785338 11.707761  2.686936
  N    13.160709  8.734848  2.864860
  N    12.940371 12.387041  2.371717
  N    11.035966  7.978002  1.596952
  N    10.806574 11.442901  1.387649
  N    10.177204  8.341563  5.409564
  N    10.212263 11.985759  5.251083
  S     9.477523  7.909882  3.877697
  S     9.515880 11.553633  3.784687
  S    12.594791  8.396893  1.273887
  S    12.314973 11.823807  0.921886
  S    11.788099  8.801184  5.319484
  S    11.908978 12.223708  5.056209
