16  
    
  C    11.771929  8.610802  3.200143
  C    11.342255 12.135299  3.387916
  C    10.534690  8.222862  2.614113
  C    10.204683 11.586503  2.650229
  N    12.730383  8.774038  2.322771
  N    12.315508 12.574406  2.605072
  N    10.514169  8.217710  1.298594
  N    10.365338 11.499557  1.330561
  N    10.222088  8.061962  5.121448
  N     9.552815 11.643622  5.236962
  S     9.339779  7.749500  3.770226
  S     8.879269 11.284300  3.713979
  S    12.071287  8.631580  0.808105
  S    11.936485 12.140138  1.061152
  S    11.751280  8.628604  4.908551
  S    11.129232 12.292516  5.147974
