16  
    
  C     6.553009  5.804883  1.989584
  C     6.635900  9.408402  1.903657
  C     5.280817  5.404899  1.419622
  C     5.450454  8.855730  1.254851
  N     7.537547  5.931826  1.103857
  N     7.587699  9.643310  0.998575
  N     5.296187  5.203704  0.102346
  N     5.511791  8.722406 -0.062716
  N     4.959421  5.749976  4.007492
  N     4.894968  8.940942  3.795867
  S     4.103948  5.387333  2.611948
  S     4.115781  8.748615  2.342235
  S     6.848997  5.496015 -0.342567
  S     7.007812  9.327735 -0.483410
  S     6.514143  6.073722  3.719710
  S     6.444857  9.671415  3.602298
