16  
    
  C     3.598611  4.419337  1.598949
  C     3.825069  8.403053  1.640161
  C     2.401705  3.909639  0.952058
  C     2.582366  7.962660  1.012547
  N     4.523944  4.888317  0.796699
  N     4.847236  8.637978  0.835778
  N     2.528094  3.954633 -0.384651
  N     2.709502  7.876352 -0.294899
  N     1.906762  4.236424  3.491529
  N     2.097585  7.922012  3.512686
  S     1.174349  3.571430  2.177483
  S     1.232278  7.855268  2.143874
  S     3.963783  4.667833 -0.724223
  S     4.250547  8.307477 -0.702771
  S     3.498016  4.821783  3.247363
  S     3.715981  8.360563  3.379440
