16  
    
  C    11.771956  8.733066  3.523868
  C    11.559437 11.915135  3.309599
  C    10.553246  8.384589  2.825549
  C    10.396466 11.614626  2.521921
  N    12.841911  8.806398  2.762683
  N    12.650131 12.196225  2.608612
  N    10.751530  8.128653  1.534967
  N    10.596366 11.585496  1.202890
  N     9.923032  8.560670  5.322532
  N     9.683186 11.897641  5.090906
  S     9.180440  8.222705  3.902068
  S     8.991444 11.563285  3.498270
  S    12.366548  8.441555  1.192817
  S    12.314218 11.901529  1.054047
  S    11.571070  8.912995  5.202989
  S    11.374177 12.097851  5.039227
