16  
    
  C     4.485446  5.232031  1.610052
  C     4.524330  8.476263  1.495446
  C     3.256442  4.788135  1.024994
  C     3.280033  7.943498  0.884834
  N     5.514383  5.328385  0.771422
  N     5.560278  8.466468  0.657999
  N     3.381746  4.492399 -0.276362
  N     3.387406  7.708697 -0.419432
  N     2.786306  4.880433  3.604774
  N     2.589312  8.775878  3.229130
  S     2.001233  4.444460  2.209594
  S     1.925638  7.839350  1.985733
  S     4.914791  4.913380 -0.704704
  S     5.001046  8.043482 -0.832653
  S     4.352709  5.366140  3.386389
  S     4.265719  8.894061  3.187977
