16  
    
  C     4.460563  5.180132  1.638224
  C     4.267377  8.652818  1.502353
  C     3.285332  4.664120  0.959568
  C     3.036074  8.192022  0.874909
  N     5.543327  5.134141  0.852065
  N     5.269281  8.846795  0.635874
  N     3.458270  4.443794 -0.370843
  N     3.182054  7.854235 -0.418345
  N     2.717414  5.076938  3.537828
  N     2.540814  8.349513  3.479407
  S     1.902867  4.641484  2.164263
  S     1.785160  7.881756  2.025219
  S     5.048529  4.822042 -0.676460
  S     4.771117  8.248419 -0.816594
  S     4.339336  5.399822  3.376710
  S     4.098306  8.840873  3.250301
