16  
    
  C     6.886906  5.821433  2.198627
  C     7.163448  9.801665  2.294196
  C     5.823030  5.484341  1.281921
  C     5.968618  9.444014  1.605174
  N     8.099651  6.003655  1.650547
  N     8.252404  9.985475  1.535910
  N     6.251337  5.163805  0.050234
  N     6.123067  9.367472  0.267117
  N     4.757372  5.589922  3.679153
  N     5.486496  9.421005  4.137353
  S     4.321469  5.277248  2.101445
  S     4.663646  9.378244  2.788475
  S     7.871170  5.541779  0.062257
  S     7.708546  9.709028 -0.030897
  S     6.319602  6.158431  3.834893
  S     7.060917 10.034570  4.001144
