16  
    
  C    12.079418  8.531341  3.503365
  C    12.120991 12.386600  3.305899
  C    10.882593  8.187845  2.818995
  C    11.011509 11.734782  2.660230
  N    13.130879  8.731998  2.725225
  N    13.235350 12.358389  2.532075
  N    11.046486  8.081261  1.516277
  N    11.173395 11.428996  1.364235
  N    10.187802  8.316584  5.304180
  N    10.259838 11.945932  5.141834
  S     9.474343  8.054058  3.848143
  S     9.659817 11.258631  3.682827
  S    12.643832  8.403973  1.204412
  S    12.774001 11.787383  1.036092
  S    11.798320  8.775268  5.223670
  S    11.872325 12.460105  5.012403
