16  
    
  C     8.553116  6.701625  2.355134
  C     8.351693 10.279911  2.485755
  C     7.374481  6.126436  1.819742
  C     7.235618  9.723461  1.832314
  N     9.525377  6.860972  1.481355
  N     9.418139 10.432652  1.696469
  N     7.310481  6.045729  0.504025
  N     7.376913  9.500224  0.537023
  N     6.959526  6.242691  4.299118
  N     6.502752 10.137715  4.223193
  S     6.053604  5.897667  2.943729
  S     5.825238  9.499246  2.839767
  S     8.851512  6.546159 -0.034841
  S     8.947653 10.032669  0.188331
  S     8.528074  6.782256  4.123621
  S     8.096360 10.558521  4.163607
