16  
    
  C    11.159365  8.193072  3.138100
  C    11.414758 11.771834  3.177136
  C     9.909238  7.613365  2.652120
  C    10.174819 11.479950  2.523248
  N    12.057919  8.325780  2.188583
  N    12.502676 11.627828  2.426612
  N     9.987791  7.296152  1.360236
  N    10.323876 11.291609  1.207749
  N     9.552773  8.086605  5.123856
  N     9.636132 11.548522  5.104079
  S     8.649560  7.545689  3.857323
  S     8.855851 11.483395  3.637652
  S    11.499712  7.640298  0.826831
  S    11.944035 11.428171  0.916804
  S    11.111314  8.442333  4.852057
  S    11.289314 11.867638  4.969954
