16  
    
  C    12.405141  8.994275  3.553728
  C    12.493149 12.694122  3.408656
  C    11.121377  8.631047  2.988360
  C    11.275676 12.064472  2.849973
  N    13.387431  9.025585  2.663739
  N    13.469063 12.802742  2.519203
  N    11.175909  8.268036  1.685661
  N    11.309005 11.913134  1.528272
  N    10.669496  9.198420  5.571875
  N    10.697697 12.558957  5.283788
  S     9.835231  8.657240  4.164258
  S     9.932327 12.016296  3.925102
  S    12.792231  8.470390  1.246696
  S    12.825452 12.424152  1.067795
  S    12.284633  9.465784  5.167337
  S    12.309653 13.103516  5.123407
