16  
    
  C    12.074502  8.552405  3.543834
  C    12.151463 12.355961  3.297666
  C    10.894027  8.223656  2.822279
  C    11.020672 11.745438  2.668260
  N    13.127470  8.726730  2.747303
  N    13.244065 12.346910  2.515955
  N    11.060615  8.065568  1.527095
  N    11.142986 11.449770  1.369145
  N    10.151212  8.306346  5.306840
  N    10.260304 11.941960  5.165789
  S     9.491104  8.049123  3.828432
  S     9.662456 11.243903  3.679502
  S    12.645766  8.401759  1.214744
  S    12.771115 11.782059  1.032017
  S    11.799924  8.772304  5.239177
  S    11.861018 12.474450  5.037236
