16  
    
  C     9.061271  7.175863  2.554066
  C     8.827629 11.134311  2.340214
  C     7.806023  6.631372  2.026336
  C     7.674382 10.467536  1.706944
  N    10.025075  7.317738  1.642983
  N     9.781230 11.418598  1.454473
  N     7.962953  6.198224  0.762339
  N     7.864296 10.129809  0.448089
  N     7.480697  7.013338  4.610149
  N     7.213855 10.602023  4.252396
  S     6.701473  6.302331  3.372393
  S     6.415952 10.136654  2.860229
  S     9.483024  6.644949  0.242096
  S     9.330800 10.845935  0.029020
  S     9.103641  7.410496  4.283460
  S     8.695470 11.262565  4.048961
