16  
    
  C    12.396067  9.169862  3.349517
  C    12.273487 12.706245  3.522830
  C    11.163886  8.605271  2.825845
  C    11.122596 12.181977  2.777170
  N    13.388046  9.312704  2.472843
  N    13.287545 12.864836  2.701640
  N    11.151219  8.373683  1.498684
  N    11.385597 11.735117  1.556490
  N    10.774693  8.941598  5.261069
  N    10.244285 12.605775  5.146376
  S     9.909247  8.482465  3.925070
  S     9.637522 12.088973  3.705250
  S    12.723514  8.737353  1.011704
  S    12.849324 12.302203  1.114095
  S    12.269483  9.504781  5.110552
  S    11.872349 13.012861  5.252941
