16  
    
  C    10.574876  7.639911  3.078850
  C    10.611285 11.770712  3.085432
  C     9.310862  7.293672  2.487348
  C     9.420817 11.088850  2.680449
  N    11.537557  7.871069  2.167826
  N    11.491537 12.019486  2.106254
  N     9.286198  7.265910  1.142169
  N     9.283663 10.937154  1.365954
  N     8.880940  7.408289  5.031982
  N     9.225637 11.438364  5.211476
  S     8.040100  6.999181  3.614191
  S     8.275286 10.893366  3.998616
  S    10.836540  7.819686  0.652869
  S    10.708829 11.514136  0.687703
  S    10.533093  7.698081  4.804180
  S    10.618016 12.294718  4.801177
