16  
    
  C     8.333072  6.869161  2.411238
  C     8.862487 10.303167  2.771986
  C     7.226219  6.235823  1.664126
  C     7.575781  9.984546  2.112116
  N     9.500392  7.022976  1.781470
  N     9.929164 10.406024  2.012186
  N     7.509034  6.090359  0.364342
  N     7.726158  9.873235  0.779480
  N     6.574232  6.337414  4.200773
  N     7.068745 10.277386  4.659080
  S     5.899937  5.941608  2.778236
  S     6.250018  9.919835  3.256405
  S     9.139977  6.586777  0.186840
  S     9.299912 10.244981  0.401831
  S     8.143023  6.899904  4.099741
  S     8.739368 10.541358  4.523858
