16  
    
  C     5.781030  5.095190  1.970915
  C     5.642990  9.198074  2.007212
  C     4.598024  4.554068  1.317832
  C     4.547422  8.426810  1.471195
  N     6.730019  5.473076  1.117242
  N     6.586251  9.524846  1.130560
  N     4.727669  4.268906  0.037454
  N     4.590018  8.306298  0.153338
  N     3.957394  4.775479  3.778152
  N     4.121247  8.751281  3.962537
  S     3.267639  4.274142  2.349777
  S     3.253338  8.158210  2.643251
  S     6.237738  4.805534 -0.361603
  S     6.063637  9.032646 -0.373641
  S     5.464430  5.477687  3.598667
  S     5.620499  9.349074  3.725123
