16  
    
  C     7.252111  5.910914  2.217435
  C     7.504713  9.614586  2.393458
  C     6.135985  5.484875  1.425313
  C     6.291500  9.403058  1.720222
  N     8.334079  6.225700  1.521957
  N     8.617791  9.712787  1.655969
  N     6.437252  5.351179  0.130315
  N     6.458806  9.287346  0.411272
  N     5.332113  5.671810  3.897268
  N     5.717376  9.647647  4.236887
  S     4.686320  5.276945  2.408337
  S     4.928832  9.356217  2.802892
  S     8.005576  5.901503 -0.081346
  S     8.088318  9.524324  0.080355
  S     6.879503  6.069278  3.887590
  S     7.334840  9.810757  4.109345
