16  
    
  C    12.101477  8.572194  3.580863
  C    11.979516 12.227472  3.265960
  C    10.887513  8.056032  2.926171
  C    10.684904 11.873545  2.701029
  N    13.128236  8.791254  2.742111
  N    12.972643 12.348189  2.349974
  N    10.990377  7.993101  1.622002
  N    10.766172 11.474198  1.436681
  N    10.179464  8.324943  5.393378
  N    10.290187 11.941459  5.133574
  S     9.497128  7.904258  3.953274
  S     9.407296 11.546970  3.815359
  S    12.568483  8.343358  1.257887
  S    12.251686 11.823622  0.881909
  S    11.778318  8.809866  5.291864
  S    11.865349 12.196709  5.015455
