16  
    
  C     6.016935  5.600470  2.165009
  C     5.970185  9.229176  1.584060
  C     4.660545  5.583514  1.561858
  C     4.737642  8.842496  0.907249
  N     7.036447  5.500663  1.307326
  N     7.059290  9.212790  0.835015
  N     4.691467  5.373361  0.257299
  N     4.902508  8.534566 -0.379472
  N     4.252942  5.831882  4.088173
  N     4.156904  9.003775  3.451752
  S     3.298737  5.716201  2.647015
  S     3.373118  8.786069  2.008981
  S     6.292724  5.289751 -0.198545
  S     6.519288  8.804922 -0.709989
  S     5.929908  5.850070  3.929193
  S     5.799062  9.529502  3.236681
