16  
    
  C     5.873255  4.955090  1.839911
  C     5.792704  9.246407  2.000543
  C     4.760766  4.443793  1.101999
  C     4.612104  8.694959  1.375630
  N     7.012397  5.115044  1.156665
  N     6.774711  9.533646  1.131083
  N     4.917389  4.444225 -0.213165
  N     4.742754  8.414624  0.072491
  N     3.918517  4.860616  3.484588
  N     4.083956  8.896260  3.938761
  S     3.318264  4.253596  2.037102
  S     3.350369  8.281120  2.557902
  S     6.550698  4.724903 -0.409074
  S     6.215806  8.947675 -0.350281
  S     5.526724  5.141423  3.504697
  S     5.642676  9.600866  3.714526
