16  
    
  C     7.699492  6.576944  2.449384
  C     7.819725 10.070424  2.116282
  C     6.512902  6.085286  1.859047
  C     6.541746  9.905068  1.466439
  N     8.740673  6.631462  1.634734
  N     8.862633 10.027812  1.274917
  N     6.587926  5.841177  0.561861
  N     6.629930  9.751488  0.157930
  N     5.884514  6.884345  4.235884
  N     5.991705 10.056588  3.969188
  S     5.167038  6.162041  2.878913
  S     5.193547  9.957187  2.485421
  S     8.177201  6.155260  0.163364
  S     8.297184  9.765473 -0.205989
  S     7.501794  7.081430  4.074016
  S     7.612449 10.380660  3.826813
