16  
    
  C    11.755957  8.591106  3.181881
  C    11.323309 12.146162  3.354671
  C    10.515749  8.197893  2.631133
  C    10.220875 11.498196  2.633502
  N    12.758049  8.798967  2.298374
  N    12.293616 12.597933  2.578383
  N    10.540483  8.188640  1.288325
  N    10.382951 11.533500  1.312281
  N    10.172784  8.082392  5.114466
  N     9.581058 11.694239  5.158087
  S     9.310305  7.727698  3.804837
  S     8.861925 11.323024  3.720788
  S    12.042055  8.634438  0.814060
  S    11.938289 12.174528  1.072732
  S    11.721756  8.673639  4.894099
  S    11.108570 12.270301  5.109445
