16  
    
  C    12.768696  9.185083  3.439828
  C    12.710523 12.908387  3.630290
  C    11.594856  8.710211  2.784265
  C    11.561429 12.305481  2.985025
  N    13.814367  9.510741  2.674937
  N    13.747509 13.097033  2.801553
  N    11.844371  8.400969  1.522907
  N    11.690290 12.094587  1.661674
  N    10.956779  9.308131  5.246038
  N    10.941985 12.650472  5.458672
  S    10.209494  8.625910  3.880292
  S    10.112091 12.248297  4.072395
  S    13.366737  8.998530  1.106739
  S    13.259016 12.617221  1.304958
  S    12.594685  9.548471  5.117750
  S    12.513272 13.213660  5.363500
