16  
    
  C     8.932913  7.134379  2.366600
  C     9.166140 10.841087  2.360809
  C     7.766241  6.711501  1.607998
  C     7.898426 10.476673  1.738056
  N    10.023889  7.378445  1.619252
  N    10.172916 10.983126  1.479971
  N     7.982763  6.887884  0.275761
  N     7.967065 10.344976  0.408397
  N     7.156968  6.579838  4.180484
  N     7.456114 10.601100  4.301298
  S     6.346179  6.436248  2.719086
  S     6.593791 10.466707  2.901464
  S     9.549883  7.322874  0.058276
  S     9.588417 10.666902  0.007888
  S     8.692512  7.150124  4.075070
  S     9.065973 10.961060  4.078300
