16  
    
  C     8.164317  6.472488  2.266935
  C     7.991247 10.142403  2.365477
  C     6.974835  5.955175  1.663708
  C     6.839451  9.565284  1.745020
  N     9.215478  6.584709  1.453397
  N     9.040294 10.404058  1.563921
  N     7.112943  5.766925  0.355558
  N     7.003209  9.324548  0.437759
  N     6.385470  6.300784  4.169382
  N     6.311237  9.899016  4.253823
  S     5.569885  5.899290  2.812497
  S     5.481740  9.413432  2.896136
  S     8.669036  6.118551 -0.059426
  S     8.513521  9.802639  0.066999
  S     8.002598  6.732434  4.008866
  S     7.918694 10.303132  4.071293
