16  
    
  C    12.045175  8.547298  3.383966
  C    12.080725 12.159523  3.249547
  C    10.780350  8.242221  2.740286
  C    11.009783 11.434349  2.635948
  N    13.050961  8.619622  2.522826
  N    13.103005 12.518737  2.454381
  N    10.864795  8.047470  1.436551
  N    11.195361 11.302237  1.323305
  N    10.340429  8.413943  5.302535
  N    10.225472 12.033106  5.116322
  S     9.497062  8.061112  3.862303
  S     9.533494 11.491269  3.644855
  S    12.431256  8.412493  1.041970
  S    12.726649 11.907342  0.934688
  S    11.944147  8.766558  5.107459
  S    11.933499 12.380145  4.982987
