16  
    
  C    12.234731  9.077216  3.738536
  C    12.588346 12.650932  3.555770
  C    11.114275  8.416569  3.161194
  C    11.343875 12.423001  2.894963
  N    13.309163  9.222206  2.999930
  N    13.619399 12.881362  2.763055
  N    11.341739  8.234450  1.866883
  N    11.419704 12.480057  1.558943
  N    10.577585  8.754238  5.645609
  N    10.895201 12.297530  5.490887
  S     9.882314  8.055603  4.345239
  S    10.046582 12.291723  4.044356
  S    12.837845  8.749935  1.508815
  S    13.047740 12.713289  1.184963
  S    12.204800  9.225923  5.441037
  S    12.409443 12.964852  5.244795
