16  
    
  C     5.372847  5.440316  1.734790
  C     5.129928  8.889896  1.722355
  C     4.146288  5.078766  1.086739
  C     3.870109  8.531193  1.059538
  N     6.479621  5.435614  0.998513
  N     6.072185  9.283956  0.862499
  N     4.298071  4.992867 -0.250453
  N     4.033448  8.378573 -0.270264
  N     3.541686  5.399637  3.621826
  N     3.358726  8.657151  3.632117
  S     2.776520  5.238351  2.184347
  S     2.536832  8.335998  2.182366
  S     5.912919  5.284449 -0.541504
  S     5.520940  8.885067 -0.676406
  S     5.233431  5.538108  3.437053
  S     5.021110  8.884099  3.489615
