16  
    
  C    12.756750  9.140373  3.411313
  C    12.796564 12.677587  3.479695
  C    11.513800  8.628686  2.864165
  C    11.617254 12.224393  2.789208
  N    13.716410  9.103662  2.500063
  N    13.800854 13.078120  2.687525
  N    11.463613  8.448669  1.569610
  N    11.819356 12.096967  1.495482
  N    11.109200  8.948109  5.432949
  N    10.876160 12.444027  5.251394
  S    10.268875  8.441004  4.012969
  S    10.235620 12.024368  3.767129
  S    13.027382  8.826904  1.030020
  S    13.312280 12.661701  1.152144
  S    12.693479  9.454275  5.096582
  S    12.394724 13.099782  5.140734
