16  
    
  C    12.853716  9.011049  3.468802
  C    12.769146 12.805364  3.449487
  C    11.569706  8.583238  2.954161
  C    11.654482 12.165700  2.775084
  N    13.733704  9.263766  2.484269
  N    13.799279 12.989766  2.640003
  N    11.525749  8.360577  1.666032
  N    11.747858 12.092265  1.461338
  N    11.109483  9.039990  5.346379
  N    10.973678 12.368921  5.241402
  S    10.242096  8.383599  4.130775
  S    10.206364 11.969726  3.805881
  S    12.931569  8.847654  1.046796
  S    13.307919 12.581783  1.061301
  S    12.729655  9.366668  5.194334
  S    12.531246 12.986936  5.207693
