16  
    
  C    11.788523  8.614443  3.205102
  C    11.344924 12.137589  3.408347
  C    10.528011  8.229351  2.601187
  C    10.207197 11.632815  2.669149
  N    12.726231  8.772929  2.328935
  N    12.331421 12.560254  2.622663
  N    10.505369  8.229497  1.293250
  N    10.366581 11.486104  1.342737
  N    10.240835  8.053472  5.136719
  N     9.543649 11.624685  5.261807
  S     9.349853  7.760705  3.752958
  S     8.885012 11.265382  3.713715
  S    12.082193  8.627261  0.808164
  S    11.930433 12.124662  1.052303
  S    11.764305  8.610020  4.919936
  S    11.136678 12.299345  5.158109
