16  
    
  C    12.397605  9.134199  3.289806
  C    12.259953 12.824390  3.421843
  C    11.120768  8.597313  2.816758
  C    11.147216 12.130760  2.768901
  N    13.386570  9.195155  2.417163
  N    13.328118 12.961095  2.615711
  N    11.209680  8.303153  1.529747
  N    11.353798 11.804728  1.489991
  N    10.835823  9.031706  5.389156
  N    10.374332 12.655604  5.241299
  S     9.885330  8.626831  4.087729
  S     9.731258 12.089099  3.768893
  S    12.756844  8.773816  0.965982
  S    12.936510 12.201445  1.233835
  S    12.398593  9.571925  4.966587
  S    11.985014 13.071080  5.039692
