16  
    
  C    12.752040  8.891469  3.833083
  C    12.617262 12.664749  3.828808
  C    11.540802  8.414905  3.236922
  C    11.513395 12.125533  3.110868
  N    13.735658  9.213743  2.983033
  N    13.733578 12.878283  3.127252
  N    11.590564  8.411347  1.903766
  N    11.719516 12.119788  1.784953
  N    11.117874  8.506216  5.785318
  N    10.838330 12.372689  5.610601
  S    10.212386  8.057538  4.467375
  S    10.137787 11.829138  4.151165
  S    13.069323  8.966834  1.515813
  S    13.307177 12.524235  1.526329
  S    12.648280  9.184956  5.503168
  S    12.506910 12.665791  5.554022
