16  
    
  C     4.529758  5.141366  2.005260
  C     4.733383  8.657306  1.496279
  C     3.379828  4.731374  1.231726
  C     3.541493  8.211569  0.807150
  N     5.685159  5.191493  1.385311
  N     5.692550  9.010227  0.643316
  N     3.695802  4.576462 -0.068872
  N     3.702225  8.086471 -0.506023
  N     2.703991  5.019960  3.714119
  N     2.919894  8.361672  3.269216
  S     1.992037  4.485950  2.306605
  S     2.205518  7.855296  1.868945
  S     5.377778  4.902619 -0.190359
  S     5.223117  8.617722 -0.863634
  S     4.339178  5.133003  3.716906
  S     4.541098  8.791601  3.235910
