16  
    
  C     4.989395  4.822793  1.759092
  C     4.692738  8.875604  1.739777
  C     3.646607  4.625785  1.231463
  C     3.421736  8.449185  1.211877
  N     5.897661  4.890137  0.771389
  N     5.622275  9.201219  0.850864
  N     3.560123  4.428499 -0.060253
  N     3.355694  8.414179 -0.108843
  N     3.330475  4.447502  3.723592
  N     3.191274  8.541792  3.774191
  S     2.360666  4.446566  2.398853
  S     2.214954  8.214680  2.457059
  S     5.019523  4.751722 -0.674745
  S     4.876588  8.923642 -0.657933
  S     4.889360  4.887895  3.534020
  S     4.794476  8.849727  3.471798
