16  
    
  C    11.160708  8.192323  3.138919
  C    11.411930 11.767626  3.180206
  C     9.918509  7.618122  2.648260
  C    10.167096 11.483153  2.527122
  N    12.058594  8.322997  2.194447
  N    12.500247 11.623817  2.432276
  N     9.986736  7.304684  1.358015
  N    10.319336 11.284564  1.210980
  N     9.555731  8.090545  5.129128
  N     9.634018 11.555663  5.115940
  S     8.653843  7.550156  3.852220
  S     8.857002 11.490661  3.640959
  S    11.505160  7.640431  0.830666
  S    11.935279 11.433322  0.914078
  S    11.110708  8.442236  4.855233
  S    11.293450 11.870072  4.971213
