16  
    
  C     6.840020  5.745921  1.945670
  C     7.217040  9.979390  2.418315
  C     5.763288  5.247283  1.129459
  C     5.973554  9.472343  1.803650
  N     8.027262  5.778834  1.363481
  N     8.174909 10.159567  1.540864
  N     6.165250  4.899264 -0.079324
  N     6.025503  9.362229  0.489134
  N     4.665998  6.049712  3.348899
  N     5.477313  9.844331  4.344691
  S     4.275349  5.194531  1.963926
  S     4.722056  9.293043  2.920443
  S     7.801275  5.202037 -0.159341
  S     7.643230  9.750428  0.080466
  S     6.350879  6.110249  3.581044
  S     7.097742 10.109430  4.152748
