16  
    
  C     3.609156  4.457599  1.527616
  C     3.486753  8.423945  1.163046
  C     2.455285  3.830104  0.918433
  C     2.197340  7.980886  0.604173
  N     4.625391  4.649448  0.695009
  N     4.420310  8.721219  0.282987
  N     2.614807  3.709695 -0.388320
  N     2.267550  7.802218 -0.723839
  N     1.755573  4.247270  3.319304
  N     1.941738  8.108340  3.249825
  S     1.175367  3.483423  1.996096
  S     1.047072  7.865004  1.865366
  S     4.052928  4.318762 -0.824185
  S     3.779800  8.320202 -1.211128
  S     3.386647  4.679477  3.221000
  S     3.554931  8.495462  2.915061
