16  
    
  C     9.329970  6.757687  2.399356
  C     9.227670 10.703457  2.913668
  C     8.101527  6.266688  1.775696
  C     7.942852 10.463542  2.227929
  N    10.420192  6.622821  1.636643
  N    10.291540 10.471506  2.162795
  N     8.247184  5.945615  0.498103
  N     8.107608 10.052374  0.986894
  N     7.359059  6.908053  4.141194
  N     7.414348 10.759838  4.715868
  S     6.691534  6.261663  2.745721
  S     6.610433 10.743064  3.295316
  S     9.862136  6.032030  0.126629
  S     9.736665  9.982060  0.651658
  S     8.983234  7.209878  4.121932
  S     9.041688 11.106966  4.618534
