16  
    
  C     8.256757  6.606614  2.433342
  C     8.470290 10.098545  2.306015
  C     7.045726  6.298785  1.781221
  C     7.178885  9.759994  1.811713
  N     9.316567  6.840912  1.675894
  N     9.442212 10.244247  1.427819
  N     7.135343  6.118692  0.462900
  N     7.159170  9.586665  0.488719
  N     6.520392  6.269645  4.313450
  N     6.879637 10.186246  4.331021
  S     5.790724  5.919854  2.890449
  S     5.921354  9.740163  3.010157
  S     8.763880  6.455877  0.116429
  S     8.732644  9.903951 -0.014643
  S     8.103762  6.739378  4.147525
  S     8.479578 10.530224  3.981307
