16  
    
  C     9.211974  6.900338  2.779196
  C     9.678227 10.935215  2.699694
  C     8.027042  6.406128  2.093195
  C     8.559419 10.170462  2.045349
  N    10.227523  7.191296  1.991426
  N    10.613827 11.295365  1.823301
  N     8.169252  6.377198  0.766466
  N     8.687070 10.125827  0.744725
  N     7.518016  6.392404  4.659914
  N     8.091984 10.098763  4.591996
  S     6.747186  6.053308  3.212934
  S     7.355205  9.615567  3.195364
  S     9.697590  6.990451  0.446986
  S    10.077700 10.858201  0.273315
  S     9.052714  6.998820  4.506849
  S     9.543000 10.912077  4.420225
