16  
    
  C     8.650408  7.283863  2.513687
  C     9.082531 10.768481  2.092613
  C     7.561138  6.615708  1.854200
  C     7.818634 10.501127  1.431618
  N     9.659077  7.689882  1.750598
  N    10.156655 10.897402  1.314018
  N     7.676376  6.700606  0.520051
  N     7.961591 10.525306  0.107271
  N     7.030918  6.652603  4.424914
  N     7.325210 10.512093  3.983289
  S     6.227691  6.260665  3.003744
  S     6.471857 10.388935  2.549979
  S     9.112162  7.462822  0.216322
  S     9.559808 10.856983 -0.212855
  S     8.594239  7.250070  4.243783
  S     8.951683 10.917924  3.824671
