16  
    
  C    12.462840  9.094060  3.397551
  C    12.326682 12.845858  3.478818
  C    11.338170  8.593986  2.691276
  C    11.192626 12.109348  3.018200
  N    13.486006  9.435614  2.630786
  N    13.252844 13.067972  2.524091
  N    11.543727  8.470318  1.413635
  N    11.130490 11.930641  1.699618
  N    10.632600  8.425942  5.144381
  N    10.693024 12.460681  5.516176
  S     9.972420  8.178831  3.610224
  S     9.868379 11.841861  4.178991
  S    13.053568  8.984578  1.048959
  S    12.601101 12.569568  1.089002
  S    12.248264  9.124578  5.186377
  S    12.212863 13.089420  5.239036
