16  
    
  C    12.657521  8.963175  3.752393
  C    12.468538 12.655850  3.966892
  C    11.509040  8.416056  3.172417
  C    11.363473 12.178842  3.190265
  N    13.689624  9.185470  2.931363
  N    13.545221 13.014879  3.254801
  N    11.622886  8.255878  1.860503
  N    11.646807 11.927694  1.915484
  N    10.983663  8.456271  5.699651
  N    10.664062 12.296086  5.706051
  S    10.197368  8.175000  4.273609
  S     9.986871 11.908909  4.209472
  S    13.109512  8.678455  1.427408
  S    13.167103 12.652031  1.688707
  S    12.576817  9.043216  5.459774
  S    12.139464 13.006818  5.633432
