16  
    
  C     6.564678  5.810904  2.088677
  C     6.424939  9.420634  1.906462
  C     5.378827  5.383366  1.435260
  C     5.284951  8.933081  1.187366
  N     7.590115  6.006531  1.287356
  N     7.490054  9.628726  1.162885
  N     5.482122  5.228942  0.132158
  N     5.490621  8.749271 -0.110265
  N     4.839770  5.659395  3.975307
  N     4.701936  9.099703  3.714479
  S     4.140791  5.179862  2.560091
  S     3.996181  8.452385  2.282846
  S     7.060350  5.604452 -0.232441
  S     7.070485  9.225216 -0.391114
  S     6.404738  6.068385  3.800043
  S     6.290177  9.481438  3.626391
