16  
    
  C     6.594902  5.757641  1.912511
  C     6.631894  9.584523  1.910850
  C     5.339642  5.444940  1.346653
  C     5.388193  9.218702  1.328196
  N     7.576446  5.828397  1.019151
  N     7.638197  9.707143  1.038177
  N     5.289165  5.318069  0.024610
  N     5.377725  8.937987  0.032596
  N     4.978395  5.832060  3.908591
  N     4.982826  9.244499  3.846020
  S     4.101331  5.449411  2.539643
  S     4.159803  8.959512  2.527943
  S     6.894930  5.503428 -0.457358
  S     6.914144  9.235542 -0.452672
  S     6.600506  5.985454  3.649265
  S     6.556194  9.734271  3.652071
