16  
    
  C     8.663447  7.274017  2.689457
  C     8.936300 11.096217  2.261959
  C     7.449992  6.704524  2.130781
  C     7.762470 10.637380  1.529771
  N     9.557382  7.540154  1.742558
  N     9.939857 11.379844  1.404748
  N     7.575681  6.387577  0.840351
  N     7.883751 10.541795  0.209457
  N     7.078953  6.954399  4.647117
  N     7.260838 10.391769  4.026708
  S     6.355806  6.180559  3.347309
  S     6.480718 10.167809  2.578061
  S     9.017791  6.945273  0.337912
  S     9.456275 11.115412 -0.102042
  S     8.631961  7.446959  4.421256
  S     8.789330 11.010040  3.949398
