16  
    
  C    12.400804  9.136394  3.285587
  C    12.254051 12.819006  3.417642
  C    11.119811  8.592071  2.815622
  C    11.137850 12.136588  2.764315
  N    13.393209  9.196199  2.420667
  N    13.327602 12.960384  2.618157
  N    11.202805  8.306222  1.533403
  N    11.357218 11.805811  1.489085
  N    10.844425  9.040385  5.385897
  N    10.377778 12.651834  5.241042
  S     9.885568  8.630591  4.092383
  S     9.736680 12.087096  3.774375
  S    12.757525  8.770777  0.967305
  S    12.938158 12.199941  1.234731
  S    12.395603  9.570139  4.964833
  S    11.992086 13.075122  5.033953
