16  
    
  C    12.073735  8.503657  3.642487
  C    12.012318 12.153803  3.306579
  C    10.882984  8.138102  2.897264
  C    10.825994 11.595338  2.695783
  N    13.147178  8.694970  2.891173
  N    12.944403 12.375265  2.376645
  N    11.069483  7.973163  1.610538
  N    10.789534 11.429126  1.359074
  N    10.178434  8.343429  5.372788
  N    10.219207 12.002631  5.282052
  S     9.478293  7.920226  3.869068
  S     9.531713 11.548503  3.785580
  S    12.622695  8.427166  1.289068
  S    12.375641 11.844052  0.935317
  S    11.791902  8.794959  5.330571
  S    11.919375 12.246669  5.057661
