16  
    
  C     6.880064  5.902630  2.113802
  C     7.230435  9.888953  2.359719
  C     5.842598  5.349312  1.291452
  C     5.999805  9.526424  1.756375
  N     8.097338  5.827484  1.545251
  N     8.273303 10.052520  1.517013
  N     6.250272  5.110869  0.051844
  N     6.092668  9.339707  0.444734
  N     4.693254  5.722977  3.514193
  N     5.446420  9.628740  4.255137
  S     4.262123  5.288874  1.972820
  S     4.643638  9.314434  2.789398
  S     7.880231  5.364264 -0.031291
  S     7.659997  9.765523 -0.008525
  S     6.330513  6.143946  3.789205
  S     7.076528 10.052650  4.099688
