16  
    
  C     9.920080  7.622438  2.705580
  C     9.884050 11.264150  2.934260
  C     8.674143  7.295241  2.052744
  C     8.729479 10.832100  2.221489
  N    10.955789  7.801406  1.899202
  N    10.949714 11.454154  2.160045
  N     8.741400  7.314788  0.725550
  N     8.859195 10.711874  0.915481
  N     8.177330  7.314898  4.535692
  N     8.012003 11.110317  4.727400
  S     7.308905  7.214080  3.153995
  S     7.335463 10.568747  3.297257
  S    10.350583  7.559973  0.328791
  S    10.482330 11.099438  0.622884
  S     9.750253  7.772200  4.403675
  S     9.628261 11.377655  4.704852
