16  
    
  C    12.469530  9.221918  3.433549
  C    12.476123 12.673786  3.441277
  C    11.152450  8.743141  2.914145
  C    11.247967 12.167004  2.831073
  N    13.436101  9.036189  2.547934
  N    13.444736 12.828096  2.539638
  N    11.111110  8.366791  1.655191
  N    11.319169 11.927608  1.519681
  N    10.755031  9.269722  5.348902
  N    10.624425 12.445921  5.335645
  S     9.878963  8.640632  4.061771
  S     9.933892 11.989261  3.902485
  S    12.686989  8.502041  1.097877
  S    12.829833 12.256945  1.042648
  S    12.359407  9.537245  5.199552
  S    12.124325 13.191341  5.049850
