16  
    
  C    12.874968  9.396318  3.438171
  C    12.802108 13.001222  3.583027
  C    11.692194  8.836223  2.808595
  C    11.562692 12.545219  3.011489
  N    13.967327  9.409745  2.617336
  N    13.797618 12.936051  2.715115
  N    11.853982  8.553461  1.514917
  N    11.609030 12.246109  1.727083
  N    11.084663  9.014983  5.281546
  N    11.051489 12.900801  5.492338
  S    10.364977  8.503530  3.912507
  S    10.221983 12.422454  4.101083
  S    13.436770  8.828313  1.159630
  S    13.176468 12.398061  1.210604
  S    12.504687  9.750010  5.182590
  S    12.744439 13.201234  5.310981
