16  
    
  C     9.536234  7.532675  2.574260
  C    10.184912 11.397723  2.524224
  C     8.469099  6.755269  2.043660
  C     8.985825 10.958616  1.958708
  N    10.509101  7.852266  1.739277
  N    11.199621 11.493603  1.658578
  N     8.678636  6.336708  0.788075
  N     9.022756 10.710410  0.644095
  N     7.819463  7.489349  4.482925
  N     8.562339 11.117807  4.512931
  S     7.185595  6.546738  3.260173
  S     7.711377 10.720949  3.164615
  S    10.170548  7.004463  0.341121
  S    10.599195 11.044536  0.204917
  S     9.433165  7.916396  4.261169
  S    10.126425 11.592966  4.271381
