16  
    
  C    11.821597  8.559012  3.430517
  C    11.606080 12.018946  3.401676
  C    10.584024  8.264707  2.740613
  C    10.389310 11.619816  2.712232
  N    12.888796  8.690093  2.679462
  N    12.719580 12.077704  2.653615
  N    10.747237  8.137064  1.462934
  N    10.504561 11.584189  1.375919
  N     9.934581  8.425042  5.220453
  N     9.891220 11.611247  5.180672
  S     9.177950  8.263087  3.760516
  S     9.030880 11.362261  3.821540
  S    12.404301  8.378419  1.122754
  S    12.195767 11.824353  1.118094
  S    11.578098  8.757317  5.095800
  S    11.445838 11.940352  5.099841
