16  
    
  C     5.371733  5.368590  1.765110
  C     5.140027  8.886141  1.717764
  C     4.140219  5.128807  1.040207
  C     3.928739  8.463305  1.070840
  N     6.451492  5.508832  0.991610
  N     6.139771  9.229363  0.889817
  N     4.348387  5.047100 -0.265998
  N     3.983868  8.435536 -0.255777
  N     3.559583  5.380105  3.546630
  N     3.356879  8.561744  3.618782
  S     2.716808  5.230138  2.127965
  S     2.550463  8.340691  2.194138
  S     5.974019  5.273694 -0.542847
  S     5.508282  8.938174 -0.648925
  S     5.148698  5.617103  3.434193
  S     5.015009  8.885104  3.479124
