16  
    
  C     6.864695  5.646050  1.812484
  C     7.198269  9.998318  2.429418
  C     5.720010  5.142209  1.031496
  C     5.908832  9.516952  1.830802
  N     8.026133  5.770228  1.179760
  N     8.229876 10.150331  1.611951
  N     6.089733  4.729565 -0.170428
  N     6.102167  9.258529  0.549008
  N     4.773674  6.065686  3.260964
  N     5.600191  9.787563  4.393016
  S     4.201806  5.093624  1.971961
  S     4.647695  9.324338  3.056585
  S     7.698385  5.150008 -0.367855
  S     7.616309  9.730489  0.097451
  S     6.386031  6.191375  3.447793
  S     7.148401 10.207216  4.156664
