16  
    
  C    11.378764  8.697411  3.287207
  C    11.496157 12.288992  3.346660
  C    10.221511  7.983243  2.750441
  C    10.388477 11.706210  2.642584
  N    12.436133  8.816371  2.483386
  N    12.493556 12.596867  2.516082
  N    10.404786  7.655221  1.499328
  N    10.534591 11.581621  1.333734
  N     9.658618  8.498331  5.182623
  N     9.576382 11.906611  5.152323
  S     8.926033  7.682637  3.895962
  S     8.965319 11.528686  3.612473
  S    11.871252  8.168690  1.045982
  S    12.069355 12.058504  0.994242
  S    11.119189  9.196458  4.952430
  S    11.082257 12.678811  4.995535
