16  
    
  C     9.267813  6.594571  2.411532
  C     9.316544 10.553991  2.886387
  C     8.035147  6.327696  1.692767
  C     8.004857 10.458392  2.204410
  N    10.388101  6.576251  1.708399
  N    10.353330 10.317008  2.121780
  N     8.273777  6.019104  0.431334
  N     8.124282 10.050033  0.944913
  N     7.392501  6.942810  4.073713
  N     7.431072 10.744116  4.626969
  S     6.690260  6.185201  2.761404
  S     6.655985 10.769747  3.167683
  S     9.944412  6.227977  0.191712
  S     9.800692  9.950857  0.645909
  S     9.026376  7.110497  3.993886
  S     9.093888 11.079373  4.504499
