16  
    
  C     9.929260  7.662449  2.680393
  C     9.893080 11.340757  3.004600
  C     8.657823  7.342329  2.038529
  C     8.769984 10.674433  2.305554
  N    10.913534  7.680455  1.787735
  N    10.935627 11.588354  2.171467
  N     8.658972  7.230709  0.702557
  N     8.961142 10.496656  0.988394
  N     8.199860  7.416854  4.527944
  N     8.053859 10.882816  4.723415
  S     7.348231  7.180706  3.133345
  S     7.376909 10.422852  3.281198
  S    10.238829  7.540428  0.239133
  S    10.479283 11.119890  0.676675
  S     9.799178  7.757770  4.428682
  S     9.606364 11.438012  4.670353
