16  
    
  C     3.469490  4.516462  1.470117
  C     3.572459  8.406454  1.218938
  C     2.313482  4.046835  0.819906
  C     2.292631  8.011579  0.683021
  N     4.508946  4.800060  0.693801
  N     4.577964  8.461692  0.324692
  N     2.543217  3.834426 -0.479285
  N     2.231296  8.069795 -0.632623
  N     1.687507  4.283292  3.336751
  N     1.911940  8.136826  3.195212
  S     1.064458  3.562960  1.994936
  S     1.007158  7.802908  1.849347
  S     4.114128  4.284591 -0.794288
  S     3.774977  8.310604 -1.146966
  S     3.311666  4.804382  3.169366
  S     3.510354  8.566997  2.947614
