16  
    
  C    11.154266  8.184178  3.167537
  C    11.406714 11.677731  3.284018
  C     9.953075  7.674441  2.625374
  C    10.153770 11.519844  2.577027
  N    12.163407  8.294187  2.274953
  N    12.457762 11.630550  2.472827
  N     9.958708  7.368703  1.328684
  N    10.246899 11.236576  1.286489
  N     9.523756  8.128598  5.177632
  N     9.643838 11.651697  5.182512
  S     8.705481  7.593030  3.794377
  S     8.843624 11.567198  3.694404
  S    11.558385  7.651056  0.865213
  S    11.850625 11.472266  0.875523
  S    11.125825  8.448488  4.888261
  S    11.327177 11.904326  4.968132
