16  
    
  C     4.282921  4.852378  1.590510
  C     4.156381  8.421918  1.409673
  C     3.016778  4.669660  0.918554
  C     2.961980  7.849114  0.809627
  N     5.287140  4.870154  0.678943
  N     5.200820  8.486242  0.586013
  N     3.009531  4.299391 -0.351768
  N     3.102517  7.693476 -0.512591
  N     2.408266  4.690103  3.435695
  N     2.361323  8.339452  3.268803
  S     1.675762  4.450572  1.922408
  S     1.572060  7.939640  1.801142
  S     4.579966  4.569986 -0.823114
  S     4.648489  8.086213 -0.885526
  S     4.036395  4.999767  3.312597
  S     3.997900  8.633202  3.115213
