16  
    
  C     9.171587  7.078691  2.331152
  C     9.035501 10.687939  2.367247
  C     7.921834  6.598828  1.746140
  C     7.804254 10.161354  1.779798
  N    10.139989  7.205759  1.432139
  N    10.056071 10.845022  1.528087
  N     7.998797  6.330226  0.465369
  N     7.888104 10.003421  0.464508
  N     7.419064  6.768790  4.214044
  N     7.158869 10.711726  4.156988
  S     6.614024  6.347694  2.819756
  S     6.471447 10.047590  2.805041
  S     9.509087  6.657635 -0.032406
  S     9.435376 10.386958 -0.033670
  S     9.039405  7.244016  4.080261
  S     8.787571 10.978940  4.067079
