16  
    
  C     9.176721  6.919100  2.674448
  C     9.650381 10.814230  2.728337
  C     8.001175  6.422879  2.036482
  C     8.574978 10.109564  2.154196
  N    10.170600  7.290966  1.857644
  N    10.582285 11.255450  1.888922
  N     8.123995  6.298960  0.714865
  N     8.617119 10.075834  0.826477
  N     7.393286  6.411912  4.488165
  N     8.182819 10.075666  4.667656
  S     6.681906  6.056834  3.024286
  S     7.362068  9.641973  3.277757
  S     9.660995  6.810296  0.348884
  S    10.034992 10.778147  0.376428
  S     9.028275  6.856829  4.424902
  S     9.600501 10.983233  4.473706
