16  
    
  C    11.087672  8.185054  3.074724
  C    11.498442 11.726486  3.236434
  C     9.872383  7.572195  2.638229
  C    10.255938 11.496225  2.513487
  N    12.081192  8.343071  2.198485
  N    12.554926 11.761470  2.439896
  N     9.918435  7.136656  1.392474
  N    10.398684 11.367450  1.197814
  N     9.502926  8.067858  5.139133
  N     9.669016 11.463909  4.947469
  S     8.596376  7.462867  3.881263
  S     8.835905 11.367312  3.561511
  S    11.410686  7.648549  0.783509
  S    12.055495 11.345881  0.893651
  S    11.119926  8.449536  4.806810
  S    11.240533 11.857241  4.914850
