16  
    
  C     9.225041  6.701914  2.367181
  C     9.530703 10.509128  2.813149
  C     8.024946  6.330384  1.673632
  C     8.241276 10.260361  2.179506
  N    10.328514  6.958287  1.648838
  N    10.571075 10.558606  1.942411
  N     8.277224  6.196158  0.369598
  N     8.362600  9.987448  0.882615
  N     7.437798  6.448884  4.228130
  N     7.819962 10.656580  4.724480
  S     6.652814  6.079265  2.823208
  S     6.949237 10.380368  3.344723
  S     9.899732  6.538611  0.080802
  S     9.920470 10.167744  0.429792
  S     9.097828  6.735833  4.115581
  S     9.453552 10.927647  4.516068
