16  
    
  C     5.986878  4.860541  1.756468
  C     5.895215  9.142389  1.962576
  C     4.803231  4.445744  1.005603
  C     4.683447  8.664159  1.343709
  N     7.104382  4.931074  1.029635
  N     6.938840  9.317858  1.160110
  N     5.020515  4.437969 -0.309500
  N     4.815999  8.461263  0.021184
  N     4.004387  4.886107  3.391353
  N     4.125239  8.930747  3.844069
  S     3.355059  4.267161  1.986751
  S     3.369441  8.403817  2.510599
  S     6.618786  4.835503 -0.562167
  S     6.318648  8.930497 -0.343747
  S     5.583327  5.042233  3.508063
  S     5.656087  9.574243  3.624052
