16  
    
  C    12.009778  8.618419  3.409263
  C    11.832567 12.082664  3.194387
  C    10.756431  8.051114  2.905132
  C    10.559420 11.713453  2.649471
  N    12.895711  8.870642  2.455959
  N    12.823440 12.157683  2.296652
  N    10.731776  7.785280  1.596785
  N    10.566827 11.613015  1.315732
  N    10.290499  8.497583  5.439797
  N     9.976570 11.921034  5.167192
  S     9.509015  7.923482  4.098510
  S     9.157622 11.502663  3.675808
  S    12.219573  8.268511  1.040963
  S    11.999306 12.038500  0.791114
  S    11.877542  9.003887  5.107363
  S    11.617587 12.359222  4.892658
