16  
    
  C    10.956933  8.086816  3.036788
  C    10.948732 11.618862  2.725276
  C     9.706369  7.448903  2.572929
  C     9.685803 11.224232  2.186357
  N    11.888953  8.274308  2.085449
  N    11.941438 11.915708  1.857819
  N     9.690371  7.137991  1.271698
  N     9.750739 11.030026  0.870132
  N     9.533690  7.562063  5.111767
  N     9.263633 11.340119  4.678741
  S     8.634453  7.062542  3.843039
  S     8.383433 10.960758  3.330717
  S    11.130768  7.706750  0.655724
  S    11.354086 11.440473  0.392817
  S    11.001864  8.261179  4.725879
  S    10.813258 11.781999  4.442229
