16  
    
  C     8.710091  7.314878  2.658421
  C     8.980357 11.090398  2.178987
  C     7.525648  6.708533  2.146488
  C     7.781463 10.675229  1.529299
  N     9.631005  7.589868  1.722502
  N    10.002914 11.410812  1.429874
  N     7.550218  6.419129  0.859285
  N     7.928299 10.529565  0.221595
  N     7.034360  6.868758  4.668237
  N     7.241712 10.383197  3.979440
  S     6.312816  6.203984  3.278810
  S     6.480285 10.208996  2.542306
  S     8.980139  7.020198  0.246578
  S     9.459260 11.042033 -0.179759
  S     8.578391  7.402567  4.444001
  S     8.801630 10.953426  3.955550
