16  
    
  C    12.830569  9.378847  3.439240
  C    12.774951 12.798805  3.632206
  C    11.665710  8.795917  2.820569
  C    11.526463 12.444031  3.013210
  N    13.917931  9.451046  2.685365
  N    13.777968 12.984642  2.806725
  N    11.821184  8.570610  1.522389
  N    11.612642 12.100897  1.733184
  N    10.987251  9.118477  5.336220
  N    11.036790 12.717512  5.509589
  S    10.327946  8.537544  3.833896
  S    10.225807 12.394541  4.122356
  S    13.380854  8.876155  1.174185
  S    13.161139 12.539141  1.287296
  S    12.570145  9.712089  5.152005
  S    12.619552 13.189655  5.311541
