16  
    
  C    11.346380  8.436437  3.378246
  C    11.414953 12.235144  3.307054
  C    10.195768  7.903418  2.721277
  C    10.142499 11.685221  2.848540
  N    12.388614  8.551703  2.547372
  N    12.398405 12.034156  2.438001
  N    10.368325  7.506533  1.449009
  N    10.092898 11.264638  1.598026
  N     9.492055  8.289323  5.131516
  N     9.921153 12.082100  5.315304
  S     8.799022  7.849781  3.714905
  S     8.936904 11.847285  4.047306
  S    11.984380  7.840900  1.099015
  S    11.618066 11.519990  0.989129
  S    11.068486  8.709937  5.073734
  S    11.381240 12.784102  5.013946
