16  
    
  C    10.813603  8.230805  2.940632
  C    10.830866 11.952862  3.030087
  C     9.590170  7.805512  2.292379
  C     9.640053 11.585573  2.328776
  N    11.820042  8.479255  2.116843
  N    11.956053 11.994067  2.290875
  N     9.702247  7.685528  0.947786
  N     9.817287 11.213432  1.049003
  N     9.010771  8.111905  4.771466
  N     8.897427 11.822869  4.767893
  S     8.238982  7.662426  3.408281
  S     8.252371 11.155718  3.379600
  S    11.346028  7.994027  0.582131
  S    11.463254 11.532386  0.752474
  S    10.645424  8.350868  4.614569
  S    10.487877 12.169314  4.757346
