16  
    
  C    11.877280  8.392757  3.248526
  C    11.454191 12.103810  3.502443
  C    10.641338  8.153361  2.566201
  C    10.316040 11.463404  2.840190
  N    12.872548  8.679915  2.447108
  N    12.496776 12.325589  2.684538
  N    10.731859  8.163023  1.251293
  N    10.457710 11.367562  1.501456
  N    10.186909  8.111510  5.133745
  N     9.732926 11.712088  5.287077
  S     9.340658  8.150385  3.697629
  S     8.975153 11.111833  3.983324
  S    12.304006  8.587644  0.886011
  S    12.003540 12.045591  1.171765
  S    11.825198  8.440954  5.002584
  S    11.280387 12.177967  5.247753
