16  
    
  C    12.049957  8.553290  3.379073
  C    12.079215 12.157239  3.249450
  C    10.786661  8.244335  2.739123
  C    11.011125 11.431542  2.641074
  N    13.050877  8.620728  2.520897
  N    13.106486 12.514871  2.451936
  N    10.854069  8.050462  1.434812
  N    11.198047 11.305732  1.326579
  N    10.349300  8.417198  5.297759
  N    10.223288 12.031435  5.113054
  S     9.497443  8.061028  3.861866
  S     9.531616 11.496187  3.644332
  S    12.423346  8.409235  1.037577
  S    12.718078 11.908464  0.925356
  S    11.944160  8.763635  5.106926
  S    11.931770 12.379462  4.986030
