16  
    
  C     8.954952  7.066397  2.347305
  C     9.145233 10.837890  2.389165
  C     7.800306  6.700033  1.613021
  C     7.928833 10.410816  1.822598
  N    10.025676  7.351211  1.615577
  N    10.142990 11.025390  1.560395
  N     7.963089  6.822421  0.301358
  N     7.950909 10.322950  0.496561
  N     7.139819  6.620696  4.153708
  N     7.452853 10.565369  4.370697
  S     6.414998  6.480753  2.685197
  S     6.603338 10.471878  2.927669
  S     9.573594  7.254493  0.040279
  S     9.586045 10.702478  0.037524
  S     8.721682  7.131702  4.095893
  S     9.044139 11.032118  4.140841
