16  
    
  C     8.366659  6.629750  2.587016
  C     8.788754 10.469382  2.806764
  C     7.240674  6.084522  1.890367
  C     7.589067 10.045914  2.171694
  N     9.413580  6.904672  1.814592
  N     9.824396 10.643714  1.940018
  N     7.381002  5.989175  0.578798
  N     7.670331  9.887197  0.868833
  N     6.373973  6.275093  4.273635
  N     6.946597 10.341740  4.621832
  S     5.746438  5.874533  2.739754
  S     6.216848  9.955925  3.197730
  S     8.939013  6.518633  0.239831
  S     9.240397 10.145006  0.515926
  S     7.943626  6.871695  4.335079
  S     8.597961 10.495310  4.567245
