16  
    
  C     5.578167  5.440383  1.940437
  C     5.541399  8.990969  1.825600
  C     4.356564  4.791921  1.424032
  C     4.397514  8.405380  1.165104
  N     6.461174  5.828030  1.033886
  N     6.563922  9.269163  1.016296
  N     4.372125  4.620361  0.104809
  N     4.571444  8.223379 -0.119625
  N     4.138961  4.956898  3.954752
  N     3.662434  8.597022  3.572231
  S     3.157446  4.611656  2.687235
  S     2.987066  8.149883  2.128984
  S     5.875095  5.189608 -0.406203
  S     6.105823  8.757700 -0.510802
  S     5.593989  5.578650  3.630032
  S     5.281279  9.105370  3.538447
