16  
    
  C    12.412605  9.002482  3.755344
  C    12.548848 12.841077  3.504271
  C    11.249368  8.373295  3.225736
  C    11.337877 12.445446  2.890321
  N    13.386615  9.099314  2.872953
  N    13.546833 13.046924  2.654189
  N    11.276735  8.115625  1.935971
  N    11.428433 12.194736  1.581831
  N    10.577140  8.852165  5.633863
  N    10.807175 12.566258  5.415623
  S     9.853240  8.359282  4.282449
  S     9.988908 12.180578  3.920460
  S    12.756917  8.504966  1.422695
  S    12.953819 12.549881  1.115886
  S    12.190867  9.288115  5.484953
  S    12.474223 12.799987  5.270796
