16  
    
  C     3.632882  4.536434  1.601080
  C     3.704793  8.455739  1.524026
  C     2.413948  3.969586  0.971837
  C     2.463479  7.999795  0.866026
  N     4.471933  4.990844  0.651199
  N     4.735440  8.549685  0.675679
  N     2.434366  3.688353 -0.331512
  N     2.535825  8.127985 -0.460098
  N     1.980697  3.898633  3.542879
  N     1.975527  8.145720  3.347997
  S     1.258920  3.401442  2.047083
  S     1.171543  7.662362  1.914320
  S     3.934960  4.287249 -0.787704
  S     4.125196  8.449633 -0.840157
  S     3.462420  4.656378  3.372861
  S     3.552851  8.539321  3.211152
