16  
    
  C     9.936843  7.512068  2.490779
  C    10.389072 11.048136  2.642203
  C     8.749725  6.998377  1.934488
  C     9.133827 11.067678  1.958781
  N    10.955615  7.592732  1.636912
  N    11.442093 11.081402  1.861143
  N     8.823814  6.698170  0.649872
  N     9.179577 11.003005  0.643222
  N     8.312576  7.218268  4.496504
  N     8.626110 11.149713  4.543809
  S     7.511649  6.574468  3.173546
  S     7.783788 10.860734  3.099828
  S    10.397881  7.018878  0.194713
  S    10.812599 11.028068  0.279970
  S     9.897034  7.717100  4.174348
  S    10.294406 11.224604  4.357999
