16  
    
  C    11.006054  8.069799  3.074944
  C    11.542617 11.789598  3.193555
  C     9.821219  7.451621  2.620838
  C    10.376680 11.388610  2.425935
  N    11.917991  8.243506  2.161910
  N    12.628371 11.719047  2.423449
  N     9.849636  7.128097  1.337207
  N    10.540607 11.212147  1.111899
  N     9.419708  8.050656  5.059900
  N     9.591328 11.434006  4.921581
  S     8.632429  7.357527  3.850856
  S     8.936686 11.207986  3.384639
  S    11.304133  7.624479  0.780189
  S    12.165868 11.435750  0.907986
  S    11.002569  8.458044  4.795743
  S    11.217034 11.924688  4.891120
