16  
    
  C     5.251367  5.416025  1.794262
  C     5.099568  8.873587  1.300192
  C     3.926315  5.026082  1.291910
  C     3.848399  8.367605  0.800941
  N     6.202246  5.353576  0.869218
  N     6.063928  8.900715  0.401810
  N     3.900196  4.615272  0.043682
  N     3.915895  8.100395 -0.500204
  N     3.639739  5.451027  3.788321
  N     3.486419  8.907182  3.255679
  S     2.680399  5.271607  2.457111
  S     2.585833  8.319081  2.005701
  S     5.403252  4.891015 -0.552951
  S     5.416577  8.445222 -1.022416
  S     5.170089  5.948417  3.462601
  S     5.127625  9.222274  2.996682
