16  
    
  C    12.633432  8.929419  3.705120
  C    12.417424 12.761780  3.936550
  C    11.420247  8.390373  3.036336
  C    11.348080 12.105733  3.209652
  N    13.649145  9.108673  2.893871
  N    13.517247 12.985852  3.238230
  N    11.510196  8.264479  1.716189
  N    11.631665 11.976050  1.896199
  N    11.049931  8.459881  5.707475
  N    10.564517 12.330382  5.716170
  S    10.185170  8.189139  4.227235
  S     9.962979 11.887862  4.278572
  S    13.140372  8.664913  1.437348
  S    13.099341 12.671208  1.645537
  S    12.575563  9.081220  5.412626
  S    12.075834 13.057197  5.571144
