16  
    
  C     3.505314  4.440953  1.492107
  C     3.564695  8.423230  1.194369
  C     2.300166  3.962242  0.772318
  C     2.241400  7.984837  0.679281
  N     4.520879  4.811308  0.704997
  N     4.523889  8.518602  0.280043
  N     2.502987  3.834025 -0.544356
  N     2.233781  8.004017 -0.653093
  N     1.736999  4.331342  3.338527
  N     1.936493  8.137111  3.161566
  S     1.075801  3.509977  2.029843
  S     0.994052  7.814908  1.874561
  S     4.157437  4.280196 -0.778598
  S     3.786304  8.317307 -1.179532
  S     3.355885  4.762631  3.183481
  S     3.530725  8.538695  2.939012
