16  
    
  C    11.855598  8.831559  3.367239
  C    11.566253 12.221176  3.253603
  C    10.604168  8.358050  2.883148
  C    10.482165 11.590602  2.559658
  N    12.781211  8.827395  2.415350
  N    12.486596 12.653596  2.391514
  N    10.583804  7.960708  1.621390
  N    10.587896 11.391147  1.258315
  N    10.298002  8.578735  5.424223
  N     9.695946 11.797411  5.069759
  S     9.340796  8.259274  4.052284
  S     9.150825 11.268015  3.532896
  S    12.086301  8.292266  1.007548
  S    12.114324 12.029626  0.900381
  S    11.835539  9.117260  5.110224
  S    11.233352 12.631385  4.968772
