16  
    
  C    12.342625  8.976341  3.786034
  C    12.622510 12.833969  3.546785
  C    11.142940  8.421743  3.189624
  C    11.327381 12.520046  2.888397
  N    13.330599  9.184023  2.885818
  N    13.614682 12.938707  2.658433
  N    11.267840  8.144967  1.896588
  N    11.411454 12.232894  1.605041
  N    10.639628  8.859179  5.657369
  N    10.835149 12.421606  5.351034
  S     9.850247  8.231839  4.316857
  S     9.988344 12.219714  3.943784
  S    12.824451  8.550298  1.441976
  S    12.983057 12.629969  1.160384
  S    12.197150  9.267429  5.544843
  S    12.474135 12.858800  5.308159
