16  
    
  C    11.032279  8.318121  2.936722
  C    10.827340 11.900270  3.045801
  C     9.866539  7.724463  2.340748
  C     9.639677 11.353005  2.368477
  N    11.992831  8.459288  2.056723
  N    11.791468 12.204448  2.192695
  N     9.984307  7.417944  1.043323
  N     9.794726 11.135607  1.066667
  N     9.415392  7.849401  4.915203
  N     9.048552 11.560306  4.867877
  S     8.608884  7.399261  3.512913
  S     8.373984 11.000923  3.488629
  S    11.510170  7.950929  0.591359
  S    11.312754 11.626369  0.704560
  S    10.966489  8.539082  4.660522
  S    10.621167 12.032070  4.827678
