16  
    
  C     4.507643  4.934764  1.258967
  C     4.247568  8.577602  1.575772
  C     3.198876  4.694533  0.694215
  C     3.136949  8.060738  0.747969
  N     5.432530  5.198371  0.299722
  N     5.370251  8.789653  0.880485
  N     3.191018  4.454330 -0.611815
  N     3.362950  8.174136 -0.559518
  N     2.681107  4.938184  3.237744
  N     2.343274  7.860860  3.250769
  S     1.905741  4.694300  1.782410
  S     1.718723  7.710171  1.703734
  S     4.641891  4.844612 -1.141440
  S     4.986093  8.574894 -0.738111
  S     4.344134  5.128983  3.055803
  S     3.897345  8.490188  3.280137
