16  
    
  C     9.724199  7.547503  2.844574
  C     9.947077 11.170971  2.767562
  C     8.565093  6.996893  2.116396
  C     8.653961 10.838456  2.095927
  N    10.792201  7.819980  2.110933
  N    10.922498 11.333257  1.912431
  N     8.795208  6.828360  0.811549
  N     8.738214 10.683688  0.803044
  N     7.798072  7.448952  4.608743
  N     8.223954 11.198205  4.630089
  S     7.186228  6.723598  3.214516
  S     7.356442 10.851301  3.225642
  S    10.370061  7.366361  0.557037
  S    10.317457 11.008848  0.364653
  S     9.391414  7.965675  4.444737
  S     9.876142 11.225109  4.467293
