16  
    
  C     3.968085  4.698234  1.685324
  C     3.957936  8.480371  1.615473
  C     2.721883  4.453435  1.011340
  C     2.749972  8.010423  0.880883
  N     5.019115  4.634047  0.922703
  N     5.056987  8.477010  0.879066
  N     2.886021  4.111144 -0.278494
  N     2.944460  7.744315 -0.390741
  N     2.263848  4.850643  3.567897
  N     2.001534  8.327839  3.352479
  S     1.449140  4.385278  2.276047
  S     1.369572  7.860485  1.914363
  S     4.520101  4.333530 -0.623215
  S     4.568725  8.022979 -0.687338
  S     3.940081  4.960376  3.362375
  S     3.659106  8.711675  3.284698
