16  
    
  C     9.618628  7.636409  2.759588
  C    10.048611 11.197759  2.669209
  C     8.543229  6.956631  2.117737
  C     8.833280 10.810651  2.086584
  N    10.658507  7.760168  1.932235
  N    11.080732 11.297735  1.830829
  N     8.671318  6.532571  0.854786
  N     8.835683 10.742892  0.743743
  N     7.877458  7.210589  4.580906
  N     8.378223 11.041424  4.589571
  S     7.182904  6.654311  3.168093
  S     7.484776 10.785420  3.211617
  S    10.190408  7.095744  0.460076
  S    10.396896 11.064704  0.250699
  S     9.295977  8.064823  4.463715
  S     9.953892 11.470229  4.362880
