16  
    
  C     6.612010  5.814377  1.918184
  C     6.590665  9.555464  1.842543
  C     5.256594  5.584074  1.389507
  C     5.389797  9.014728  1.262098
  N     7.591181  5.899988  1.012271
  N     7.601873  9.719028  0.998190
  N     5.315728  5.216373  0.106819
  N     5.473189  8.842931 -0.075065
  N     5.007894  5.732007  3.962194
  N     4.941860  9.071221  3.868169
  S     3.966961  5.406237  2.623001
  S     4.058604  8.870944  2.463211
  S     6.861438  5.453367 -0.427778
  S     7.022375  9.269735 -0.481207
  S     6.612026  6.032023  3.639728
  S     6.565764  9.693700  3.582561
