16  
    
  C     9.781948  7.549436  2.756663
  C     9.760306 11.138323  2.907513
  C     8.612252  7.121141  2.102318
  C     8.622021 10.684280  2.249669
  N    10.803461  7.788432  1.911798
  N    10.834872 11.409718  2.130595
  N     8.748404  6.894939  0.793756
  N     8.802307 10.473719  0.945064
  N     7.916493  7.105238  4.574994
  N     7.986403 10.703832  4.732749
  S     7.243861  6.837767  3.062610
  S     7.299956 10.199435  3.271932
  S    10.248969  7.409409  0.400925
  S    10.325400 10.962043  0.599286
  S     9.556908  7.643892  4.534971
  S     9.563613 11.290975  4.627595
