16  
    
  C     5.746769  5.674370  1.850994
  C     5.922252  9.019052  2.065970
  C     4.532017  5.334118  1.239943
  C     4.667731  8.759705  1.432081
  N     6.822039  5.527223  1.104156
  N     6.986020  9.089860  1.273306
  N     4.677480  4.969994 -0.026941
  N     4.836103  8.481035  0.150066
  N     3.958792  5.602674  3.743402
  N     4.070718  8.871011  3.918175
  S     3.193823  5.265762  2.366374
  S     3.268406  8.572810  2.434204
  S     6.283803  5.057929 -0.374280
  S     6.423493  8.706043 -0.223989
  S     5.597104  5.747917  3.550655
  S     5.737980  9.067431  3.809113
