16  
    
  C     6.643982  6.047761  2.363589
  C     7.009725  9.816808  2.248119
  C     5.523324  5.380162  1.840465
  C     5.797371  9.489403  1.610527
  N     7.511515  6.521779  1.492199
  N     8.058631  9.905453  1.467417
  N     5.584576  5.215882  0.527211
  N     5.880650  9.288003  0.296219
  N     5.325912  5.364508  4.455163
  N     5.386053  9.430879  4.115089
  S     4.576648  4.729448  3.073014
  S     4.502800  9.388204  2.780051
  S     6.932489  6.054433  0.025844
  S     7.536215  9.601339 -0.069514
  S     6.702921  6.152890  4.085062
  S     6.983858  9.842760  3.978963
