16  
    
  C     5.500026  5.306003  1.818727
  C     5.234130  8.912035  1.700727
  C     4.170901  5.167231  1.295246
  C     4.052683  8.446256  0.986880
  N     6.459414  5.317847  0.904160
  N     6.333954  8.994889  0.924490
  N     4.124419  5.048392 -0.037602
  N     4.230523  8.344496 -0.334255
  N     4.055982  5.135900  3.829355
  N     3.397742  8.658250  3.516533
  S     3.001390  5.046968  2.628787
  S     2.718679  8.190910  2.071566
  S     5.712352  5.280019 -0.537861
  S     5.782762  8.691612 -0.634816
  S     5.658764  5.437824  3.550768
  S     4.901573  9.288212  3.400873
