16  
    
  C     7.287073  5.863064  2.222759
  C     7.573700  9.600402  2.396641
  C     6.115839  5.501946  1.425337
  C     6.309817  9.350130  1.695252
  N     8.360673  6.257600  1.517690
  N     8.653969  9.737433  1.649554
  N     6.400336  5.352970  0.136462
  N     6.494474  9.312424  0.383798
  N     5.312871  5.665867  3.870012
  N     5.732139  9.689331  4.169043
  S     4.692120  5.277391  2.414120
  S     4.975649  9.331850  2.797592
  S     8.003334  5.909575 -0.099231
  S     8.065329  9.538532  0.049474
  S     6.924644  6.058518  3.944751
  S     7.384289  9.795751  4.131664
