16  
    
  C     3.510879  4.444222  1.496743
  C     3.544971  8.397198  1.187567
  C     2.325025  3.911686  0.776295
  C     2.246957  8.009408  0.663560
  N     4.531358  4.797034  0.730127
  N     4.487104  8.556466  0.276102
  N     2.492848  3.830537 -0.557666
  N     2.235126  7.960914 -0.667230
  N     1.766063  4.346074  3.335249
  N     1.952389  8.137399  3.169041
  S     1.084008  3.494005  2.035423
  S     0.993578  7.820972  1.879666
  S     4.160685  4.280957 -0.785385
  S     3.790572  8.319022 -1.194096
  S     3.366035  4.743589  3.190579
  S     3.536919  8.528507  2.935298
