16  
    
  C     9.331399  6.760992  2.400406
  C     9.238340 10.704900  2.908297
  C     8.096500  6.260506  1.769939
  C     7.942890 10.454395  2.226353
  N    10.430786  6.612360  1.646032
  N    10.297392 10.448878  2.170686
  N     8.257640  5.958408  0.489124
  N     8.123297 10.048964  0.972777
  N     7.357491  6.911549  4.131458
  N     7.416661 10.748297  4.709069
  S     6.686836  6.253308  2.748256
  S     6.612621 10.749887  3.284952
  S     9.862339  6.043816  0.131395
  S     9.734202  9.979543  0.650473
  S     8.987766  7.203887  4.114078
  S     9.044926 11.107460  4.609383
