16  
    
  C     8.264398  6.663319  2.469569
  C     8.509074 10.085023  2.351900
  C     7.034421  6.246593  1.802482
  C     7.213193  9.706994  1.817346
  N     9.279445  6.812775  1.638760
  N     9.409877 10.246612  1.370038
  N     7.103559  6.132488  0.482765
  N     7.169900  9.585947  0.508690
  N     6.467045  6.281366  4.294690
  N     6.894144 10.210127  4.333513
  S     5.771146  5.929594  2.877905
  S     5.936105  9.762448  3.013366
  S     8.748574  6.438568  0.123958
  S     8.726826  9.910899 -0.027184
  S     8.049942  6.730699  4.188345
  S     8.484989 10.525712  3.998498
