16  
    
  C     6.928061  6.001475  1.619099
  C     7.326081  9.895802  2.485141
  C     5.849851  5.102179  1.182129
  C     6.004526  9.548977  1.931410
  N     7.941605  6.173286  0.740872
  N     8.335612  9.846426  1.594804
  N     5.985412  4.698915 -0.072551
  N     6.066757  9.163936  0.649640
  N     5.166470  5.808356  3.572413
  N     5.527606  9.876387  4.438943
  S     4.533870  4.960181  2.299701
  S     4.681690  9.538403  3.023505
  S     7.384378  5.380830 -0.641905
  S     7.610257  9.403875  0.126509
  S     6.715072  6.412376  3.355709
  S     7.169869 10.271937  4.217736
