16  
    
  C     4.711363  5.040654  2.105481
  C     4.739042  8.726486  1.543369
  C     3.553724  4.679386  1.324463
  C     3.567819  8.270642  0.873252
  N     5.843694  5.147886  1.395853
  N     5.741074  9.088302  0.754974
  N     3.768671  4.606586  0.022816
  N     3.699026  8.243709 -0.448270
  N     2.694369  4.840248  3.766306
  N     2.963282  8.312349  3.442961
  S     2.053582  4.562389  2.241828
  S     2.268115  7.836979  1.991190
  S     5.374338  4.850036 -0.224372
  S     5.176214  8.849143 -0.829928
  S     4.316597  5.146076  3.796414
  S     4.561007  8.803318  3.258498
