16  
    
  C    11.078021  8.322522  2.936679
  C    10.802818 11.873099  2.991154
  C     9.970349  7.582314  2.462718
  C     9.624943 11.325105  2.367340
  N    11.950613  8.639877  1.991026
  N    11.875274 11.982633  2.183996
  N     9.989264  7.289057  1.179353
  N     9.738012 11.165535  1.045284
  N     9.457345  7.955266  4.982341
  N     9.139211 11.336512  4.917625
  S     8.720028  7.261878  3.633272
  S     8.319244 10.895874  3.500067
  S    11.433295  7.897446  0.577722
  S    11.289594 11.618257  0.695795
  S    10.993116  8.621098  4.611682
  S    10.696453 11.905015  4.712436
