16  
    
  C     9.856952  7.870412  2.691258
  C    10.553971 11.586284  3.114483
  C     8.869390  7.118341  2.003638
  C     9.408704 11.146532  2.394834
  N    11.013951  8.094826  1.992964
  N    11.681161 11.616760  2.391645
  N     9.221014  6.749059  0.748543
  N     9.662978 11.003641  1.090249
  N     8.014736  7.195601  4.461900
  N     8.673996 11.277155  4.801440
  S     7.484247  6.689903  2.973058
  S     7.976392 11.093662  3.341544
  S    10.685079  7.425553  0.501341
  S    11.265761 11.222632  0.839032
  S     9.448280  8.097814  4.401940
  S    10.296778 11.706260  4.859430
