16  
    
  C     9.396368  7.008944  2.923168
  C     9.653564 10.793539  2.606298
  C     8.176435  6.576195  2.258025
  C     8.422999 10.249268  1.986366
  N    10.421218  7.329135  2.078341
  N    10.624758 11.180097  1.767212
  N     8.296551  6.499682  0.930327
  N     8.552656 10.239071  0.647873
  N     7.536189  6.538144  4.773102
  N     7.956530 10.314620  4.543103
  S     6.965543  5.964274  3.301380
  S     7.198055  9.816747  3.130595
  S     9.772981  7.056394  0.540195
  S    10.017626 10.902953  0.227159
  S     9.178875  6.903282  4.718593
  S     9.518293 10.871195  4.331761
