16  
    
  C     9.208161  6.909815  2.767388
  C     9.672790 10.935774  2.691618
  C     8.025393  6.394934  2.095862
  C     8.560371 10.167878  2.048309
  N    10.231380  7.189501  1.977194
  N    10.619122 11.294472  1.820780
  N     8.163740  6.366645  0.780534
  N     8.682240 10.116530  0.757681
  N     7.508610  6.380664  4.645957
  N     8.102851 10.093438  4.596525
  S     6.746830  6.061434  3.205780
  S     7.360082  9.614511  3.202996
  S     9.696397  6.987357  0.432894
  S    10.082641 10.859811  0.276222
  S     9.041284  6.994798  4.507122
  S     9.538646 10.912585  4.424669
