16  
    
  C     7.680991  6.401374  2.289696
  C     7.813012 10.010735  2.452406
  C     6.341002  6.019547  1.840438
  C     6.610390  9.605329  1.745424
  N     8.552063  6.542316  1.307796
  N     8.848836 10.168049  1.637366
  N     6.227926  5.791608  0.561266
  N     6.713247  9.575583  0.449062
  N     6.100627  6.333161  4.348693
  N     5.842135  9.894700  4.162577
  S     5.140449  5.994279  3.038777
  S     5.189888  9.411462  2.711424
  S     7.761967  6.139339 -0.111123
  S     8.295228  9.866781  0.063238
  S     7.635543  6.664441  4.018454
  S     7.417768 10.302791  4.149730
