16  
    
  C    10.942665  8.175556  2.949367
  C    10.863240 11.841881  3.075762
  C     9.728272  7.757437  2.267873
  C     9.685540 11.271461  2.377628
  N    11.981528  8.274315  2.153563
  N    11.878731 12.090680  2.276918
  N     9.823915  7.554176  0.981369
  N     9.782344 11.183426  1.060733
  N     9.149519  7.887454  4.841770
  N     9.022359 11.671934  4.837326
  S     8.406357  7.609561  3.342978
  S     8.295085 11.157306  3.420599
  S    11.396457  8.035901  0.577929
  S    11.413873 11.671724  0.761069
  S    10.783328  8.462298  4.650424
  S    10.547537 12.237485  4.710858
