16  
    
  C     8.487711  6.612991  2.420331
  C     8.423453 10.317122  2.363149
  C     7.209904  6.195764  1.773996
  C     7.131325  9.926808  1.754493
  N     9.460005  6.860615  1.557897
  N     9.441493 10.327996  1.504031
  N     7.265730  6.073129  0.451354
  N     7.197918  9.693585  0.451230
  N     6.802157  6.187456  4.318422
  N     6.662541 10.147209  4.314502
  S     5.959404  5.922053  2.930388
  S     5.920513  9.580377  2.928836
  S     8.829215  6.546501 -0.017869
  S     8.821026  9.827486  0.003754
  S     8.343623  6.775101  4.142590
  S     8.279837 10.545951  4.124024
