16  
    
  C    10.900341  8.148230  3.266183
  C    10.700534 11.914373  3.255316
  C     9.748551  7.589847  2.654583
  C     9.554455 11.285922  2.740024
  N    11.878698  8.450167  2.381228
  N    11.573467 12.290030  2.312198
  N     9.816071  7.421355  1.323143
  N     9.613257 11.061186  1.431642
  N     9.211599  7.731964  5.147801
  N     9.118421 11.565238  5.233705
  S     8.391402  7.394366  3.781660
  S     8.273510 11.041330  3.892686
  S    11.318809  7.893048  0.951266
  S    10.937821 11.786781  0.857717
  S    10.735155  8.426487  4.948460
  S    10.636328 12.104066  4.960647
