16  
    
  C     3.731728  4.389378  1.560498
  C     3.563278  8.497952  1.217537
  C     2.551242  3.732297  0.974531
  C     2.288737  7.974309  0.699905
  N     4.664242  4.733036  0.672676
  N     4.451843  8.791135  0.276363
  N     2.568553  3.607989 -0.346363
  N     2.337043  7.775999 -0.600299
  N     1.875093  4.038782  3.401835
  N     1.972943  8.117075  3.167022
  S     1.200963  3.490479  1.937854
  S     1.003668  7.838659  1.833195
  S     3.979543  4.294582 -0.845810
  S     3.786268  8.341903 -1.168924
  S     3.395896  4.673755  3.311732
  S     3.534203  8.515629  2.937527
