16  
    
  C     6.353082  5.831647  2.014326
  C     6.070474  9.160123  1.693152
  C     5.084540  5.426074  1.428641
  C     4.824362  8.746724  1.082944
  N     7.392400  5.767654  1.194460
  N     7.133692  9.281412  0.902182
  N     5.174749  5.164819  0.130246
  N     4.932186  8.622279 -0.241875
  N     4.686732  5.637662  3.964283
  N     4.349100  8.879936  3.610006
  S     3.733756  5.326013  2.568371
  S     3.517286  8.578534  2.258225
  S     6.780109  5.383099 -0.308020
  S     6.503651  8.928761 -0.642603
  S     6.231427  6.133225  3.689016
  S     5.912533  9.414493  3.394254
