16  
    
  C    11.366460  8.510225  3.362811
  C    11.368070 12.414619  3.306203
  C    10.251900  7.871306  2.735304
  C    10.234285 11.751782  2.715045
  N    12.426564  8.650624  2.580265
  N    12.401751 12.529078  2.476307
  N    10.372806  7.574995  1.457546
  N    10.469244 11.295241  1.484495
  N     9.517480  8.537975  5.160360
  N     9.603488 12.479181  5.165961
  S     8.856522  7.745078  3.853883
  S     8.945409 11.635584  3.813974
  S    11.919969  8.049468  1.100331
  S    11.980279 11.827831  1.058959
  S    11.052873  9.066819  4.998403
  S    11.301331 12.744203  5.020149
