16  
    
  C     8.527965  6.552233  2.384091
  C     8.421305 10.296345  2.400329
  C     7.297913  6.235136  1.784129
  C     7.198684  9.905771  1.777571
  N     9.487811  6.898323  1.521115
  N     9.459213 10.401911  1.575529
  N     7.322544  6.059449  0.456720
  N     7.230163  9.682207  0.451470
  N     6.832924  6.185378  4.362173
  N     6.598685 10.147268  4.286296
  S     6.047685  5.934869  2.918614
  S     5.904861  9.549858  2.895369
  S     8.790518  6.537319 -0.019303
  S     8.819719  9.844485  0.039258
  S     8.357436  6.768558  4.140116
  S     8.235441 10.551343  4.140463
