16  
    
  C    11.054017  8.339215  2.942079
  C    10.807555 11.918708  3.002632
  C     9.947969  7.624407  2.443949
  C     9.615602 11.317955  2.406869
  N    11.982880  8.640850  2.031296
  N    11.882313 12.035823  2.181929
  N     9.980206  7.290803  1.157543
  N     9.715973 11.180827  1.074569
  N     9.455427  7.943317  4.940406
  N     9.120601 11.378889  4.941555
  S     8.716410  7.283037  3.623226
  S     8.324704 10.900935  3.488881
  S    11.444922  7.897547  0.578402
  S    11.303468 11.609224  0.703899
  S    10.997982  8.595707  4.607804
  S    10.687309 11.916095  4.706805
