16  
    
  C     8.986307  7.028511  2.235497
  C     8.995176 10.560152  2.382745
  C     7.778482  6.647142  1.591609
  C     7.784550 10.127218  1.752008
  N    10.033452  7.248337  1.440540
  N    10.055111 10.742777  1.583457
  N     7.892280  6.297978  0.304323
  N     7.934551  9.803074  0.491567
  N     7.256379  6.722658  4.163273
  N     7.251493 10.456831  4.249165
  S     6.500731  6.321113  2.741404
  S     6.434674 10.100586  2.854817
  S     9.460487  6.698361 -0.113684
  S     9.439574 10.275433  0.030568
  S     8.819014  7.215287  3.986781
  S     8.885971 10.822087  4.121594
