16  
    
  C     5.995814  4.803959  1.702055
  C     5.944330  9.174544  1.970073
  C     4.765457  4.575037  0.973841
  C     4.747463  8.612614  1.342486
  N     7.043227  5.149390  0.931636
  N     6.955890  9.222077  1.099124
  N     5.011039  4.483730 -0.323123
  N     4.809598  8.469929  0.036566
  N     4.124892  4.737534  3.459376
  N     4.184357  8.836877  3.822162
  S     3.392398  4.375467  1.955028
  S     3.392459  8.525303  2.409145
  S     6.572006  4.802961 -0.584378
  S     6.398061  8.835378 -0.381473
  S     5.764059  5.000725  3.362632
  S     5.747164  9.484251  3.684735
