16  
    
  C    11.786621  8.787417  3.503887
  C    11.537006 12.155539  3.283698
  C    10.539328  8.394494  2.807196
  C    10.422412 11.708245  2.527437
  N    12.853984  8.771964  2.729639
  N    12.682578 12.309454  2.609672
  N    10.713410  8.183791  1.507770
  N    10.725203 11.500999  1.233335
  N    10.004154  8.542561  5.364806
  N     9.676212 11.852397  4.906814
  S     9.212316  8.217418  3.904706
  S     8.986073 11.564898  3.521057
  S    12.329404  8.426269  1.197420
  S    12.274389 11.887832  1.026492
  S    11.584731  8.969017  5.285758
  S    11.264878 12.166785  5.006190
