16  
    
  C     9.946005  7.610679  2.702569
  C     9.883128 11.255220  2.941907
  C     8.706988  7.311400  2.041867
  C     8.748146 10.844182  2.224528
  N    10.970624  7.787926  1.886062
  N    10.929010 11.484265  2.186321
  N     8.721988  7.319949  0.721089
  N     8.870865 10.685307  0.920925
  N     8.178746  7.328672  4.558303
  N     7.996882 11.119025  4.724198
  S     7.316868  7.214264  3.148679
  S     7.346207 10.545292  3.295541
  S    10.323479  7.555374  0.309640
  S    10.490417 11.102903  0.619743
  S     9.747598  7.773070  4.402149
  S     9.632837 11.382468  4.708083
