16  
    
  C    10.500260  7.253479  2.821768
  C    10.280480 11.066346  2.793491
  C     9.211553  7.448078  2.156291
  C     8.984095 10.854938  2.145845
  N    11.535892  7.079894  2.006361
  N    11.265060 11.122210  1.923306
  N     9.292022  7.476158  0.812657
  N     9.056893 10.716774  0.842701
  N     8.715188  7.366505  4.749565
  N     8.501364 11.049424  4.684016
  S     7.905106  7.486849  3.270946
  S     7.715253 10.632235  3.244339
  S    10.848538  7.128028  0.474927
  S    10.622803 10.896601  0.429420
  S    10.386790  7.212239  4.542125
  S    10.132395 11.257268  4.511678
