16  
    
  C    12.343166  9.123887  3.668919
  C    12.542531 12.830303  3.501159
  C    11.221850  8.469936  2.982536
  C    11.259829 12.416482  2.937977
  N    13.320624  9.596380  2.886576
  N    13.505794 13.081736  2.612639
  N    11.413201  8.265682  1.671395
  N    11.331557 12.300437  1.610932
  N    10.632108  8.406082  5.431648
  N    10.859480 12.730703  5.470709
  S     9.949070  7.945258  4.045563
  S    10.035605 12.226787  4.116920
  S    12.852236  9.135898  1.361610
  S    12.874610 12.561261  1.143899
  S    12.066398  9.216559  5.354475
  S    12.461958 12.865672  5.287562
