16  
    
  C     4.517893  4.968208  1.210191
  C     4.286332  8.498119  1.531093
  C     3.241863  4.629143  0.686855
  C     3.158764  8.115482  0.739075
  N     5.415438  5.218522  0.248446
  N     5.356649  8.786014  0.791652
  N     3.127328  4.509695 -0.640092
  N     3.403655  8.079176 -0.578954
  N     2.670919  4.895327  3.190598
  N     2.356644  7.974415  3.187401
  S     1.900097  4.714579  1.755505
  S     1.720407  7.672345  1.726531
  S     4.665338  4.820106 -1.205681
  S     5.004599  8.508207 -0.766225
  S     4.297201  5.143062  3.021449
  S     3.967141  8.455215  3.274458
