16  
    
  C     5.377118  5.422597  1.754797
  C     5.080641  8.940921  1.707071
  C     4.155073  5.110047  1.100872
  C     3.872811  8.551348  1.064755
  N     6.488399  5.423350  1.000071
  N     6.049397  9.284649  0.852734
  N     4.255507  4.954639 -0.221406
  N     4.012957  8.343166 -0.243174
  N     3.581691  5.404419  3.657859
  N     3.364581  8.709982  3.600308
  S     2.816845  5.233297  2.205819
  S     2.547042  8.330834  2.174578
  S     5.864317  5.278870 -0.559130
  S     5.549163  8.855437 -0.677766
  S     5.289672  5.493102  3.467628
  S     5.016195  8.890087  3.477233
