16  
    
  C     3.770591  4.750804  1.597244
  C     3.788630  8.364360  1.729127
  C     2.466893  4.478836  0.958349
  C     2.566859  7.915080  1.061491
  N     4.826317  4.633419  0.762070
  N     4.815285  8.521806  0.884228
  N     2.509008  4.482979 -0.370299
  N     2.812173  7.437241 -0.178888
  N     2.026519  4.789113  3.410000
  N     1.960703  8.395704  3.472721
  S     1.133885  4.469870  2.069732
  S     1.223035  7.917155  2.066866
  S     4.151152  4.384485 -0.718174
  S     4.370115  7.852708 -0.522187
  S     3.681320  4.903471  3.310850
  S     3.560976  8.817183  3.380130
