16  
    
  C    12.798085  9.330760  3.476385
  C    12.835609 12.939609  3.487972
  C    11.689550  8.752491  2.789888
  C    11.573058 12.621720  2.906651
  N    13.878496  9.392265  2.730614
  N    13.863745 12.976564  2.648122
  N    11.867265  8.383402  1.532141
  N    11.605159 12.247380  1.621684
  N    11.044189  9.031080  5.312080
  N    11.115002 13.062296  5.450361
  S    10.383872  8.486688  3.862230
  S    10.329011 12.466727  4.143716
  S    13.446485  8.881703  1.195797
  S    13.229545 12.373788  1.267116
  S    12.632999  9.721263  5.083494
  S    12.686666 13.213111  5.201085
