16  
    
  C     7.799471  6.383303  2.163164
  C     8.064700 10.510245  2.177614
  C     6.614540  5.903915  1.510671
  C     6.901743  9.914429  1.586089
  N     8.840267  6.638034  1.366869
  N     9.048255 10.752592  1.334457
  N     6.720699  5.857435  0.184665
  N     7.007857  9.776146  0.255829
  N     6.141847  5.900113  3.981767
  N     6.429466 10.222081  4.096396
  S     5.301425  5.525276  2.612268
  S     5.601965  9.652340  2.744340
  S     8.363681  6.277753 -0.156602
  S     8.639065 10.239860 -0.135948
  S     7.771210  6.386075  3.854098
  S     7.887870 10.931406  3.833936
