16  
    
  C     3.799787  4.626987  1.614675
  C     3.793999  8.500776  1.663875
  C     2.519169  4.568324  0.957125
  C     2.601815  7.852704  1.112242
  N     4.773425  4.699573  0.671767
  N     4.891143  8.451003  0.878965
  N     2.539025  4.393784 -0.364093
  N     2.750134  7.510561 -0.191526
  N     1.911406  4.659224  3.497553
  N     1.998242  8.415474  3.581893
  S     1.182625  4.384807  1.972167
  S     1.222021  7.920767  2.163235
  S     4.042752  4.568680 -0.868074
  S     4.324903  7.823204 -0.605340
  S     3.525464  4.905753  3.375607
  S     3.598513  8.756866  3.374547
