16  
    
  C     3.718560  4.773515  1.530245
  C     3.841067  8.305424  1.691229
  C     2.435612  4.384186  0.926655
  C     2.602706  8.000500  1.095013
  N     4.784599  4.765914  0.689319
  N     4.847404  8.413674  0.815373
  N     2.482844  4.328531 -0.401293
  N     2.693077  7.600679 -0.189405
  N     1.911875  4.463816  3.419878
  N     2.053386  8.361133  3.564910
  S     1.070686  4.326323  2.045839
  S     1.241993  7.893009  2.221901
  S     4.118399  4.683244 -0.842352
  S     4.292542  7.853218 -0.613637
  S     3.525263  4.897679  3.303495
  S     3.680929  8.738553  3.374597
