16  
    
  C     6.549402  5.893384  2.107992
  C     6.368435  9.163726  1.962395
  C     5.465990  5.246375  1.423782
  C     5.202588  8.745740  1.247429
  N     7.622810  6.132731  1.360484
  N     7.346502  9.495527  1.138665
  N     5.640345  5.142263  0.098773
  N     5.344203  8.628245 -0.071219
  N     4.829238  5.415025  3.928891
  N     4.474902  8.901963  3.624213
  S     4.130953  5.136541  2.468943
  S     3.787617  8.591084  2.213517
  S     7.186527  5.634835 -0.152087
  S     6.900419  9.177069 -0.375865
  S     6.320868  6.051442  3.818879
  S     6.057503  9.422394  3.650851
