16  
    
  C     3.621940  4.536669  1.591057
  C     3.719559  8.398172  1.546270
  C     2.479274  3.919228  1.001688
  C     2.535381  8.053181  0.869215
  N     4.492091  4.941176  0.675921
  N     4.744421  8.575397  0.746296
  N     2.468555  3.766723 -0.318611
  N     2.566733  8.071444 -0.453290
  N     1.926701  3.927523  3.506621
  N     1.980529  8.071780  3.345987
  S     1.276897  3.432011  2.080142
  S     1.221143  7.700659  1.947869
  S     3.894447  4.345270 -0.809118
  S     4.143595  8.430782 -0.798507
  S     3.447846  4.693109  3.384043
  S     3.581857  8.496032  3.287690
