16  
    
  C     4.029827  4.699811  1.706189
  C     3.903731  8.381371  1.661496
  C     2.729722  4.324973  1.135731
  C     2.701587  8.067493  0.932419
  N     5.058993  4.589602  0.867575
  N     4.982083  8.459963  0.914029
  N     2.775393  4.051719 -0.161486
  N     2.926575  7.795175 -0.336590
  N     2.223457  4.833901  3.557110
  N     2.025846  8.293855  3.362098
  S     1.368036  4.484165  2.159787
  S     1.284665  7.809379  1.911571
  S     4.350230  4.268385 -0.603038
  S     4.528759  7.983472 -0.584704
  S     3.868283  4.951581  3.422407
  S     3.586831  8.798882  3.328979
