16  
    
  C     6.253768  5.757543  2.053917
  C     6.051232  9.155217  1.616015
  C     4.961214  5.354766  1.483093
  C     4.783567  8.755112  0.997567
  N     7.236086  5.678875  1.150522
  N     7.083520  9.312495  0.773814
  N     4.918883  5.217809  0.155021
  N     4.891407  8.509127 -0.297501
  N     4.564012  5.820168  3.976757
  N     4.296476  9.209537  3.403131
  S     3.615729  5.539187  2.588535
  S     3.534170  8.538740  2.162765
  S     6.529620  5.314361 -0.336041
  S     6.406422  8.905070 -0.738504
  S     6.184290  5.993350  3.811499
  S     5.957128  9.405480  3.367632
