16  
    
  C     4.164457  4.849581  1.653625
  C     4.080283  8.325282  1.532535
  C     2.904583  4.462949  1.008318
  C     2.841770  7.967234  0.820183
  N     5.196133  4.791687  0.789514
  N     5.086507  8.581659  0.723958
  N     2.967825  4.388030 -0.314728
  N     3.049466  7.650164 -0.462864
  N     2.377195  4.738378  3.474249
  N     2.193079  8.362852  3.274533
  S     1.523567  4.351947  2.114305
  S     1.447764  7.942650  1.859701
  S     4.555536  4.392723 -0.688076
  S     4.614294  8.074325 -0.810821
  S     4.015260  5.002706  3.364740
  S     3.827962  8.649688  3.231737
