16  
    
  C    10.444614  7.527588  2.628122
  C    10.445671 11.365196  2.647185
  C     9.138558  7.437246  2.084081
  C     9.197235 11.159832  1.984450
  N    11.425178  7.357788  1.759987
  N    11.502780 11.328382  1.863082
  N     9.143814  7.268626  0.757416
  N     9.257215 10.852406  0.700007
  N     8.798986  7.811458  4.611748
  N     8.560800 11.276488  4.498032
  S     7.840377  7.400108  3.248504
  S     7.790473 11.305493  3.056660
  S    10.725133  7.197742  0.300730
  S    10.913577 10.958171  0.376495
  S    10.456650  7.665885  4.360646
  S    10.238526 11.524720  4.407989
