16  
    
  C    11.319514  8.147598  3.359178
  C    11.384301 12.058059  3.254146
  C    10.130383  7.803292  2.690453
  C    10.040966 11.653520  2.825769
  N    12.393140  8.175332  2.586303
  N    12.370995 11.898434  2.372586
  N    10.286218  7.591836  1.377006
  N    10.010529 11.382267  1.530650
  N     9.491609  8.376268  5.063652
  N     9.832374 12.167762  5.341080
  S     8.744944  7.752030  3.714266
  S     8.828222 11.802934  4.113429
  S    11.904571  7.849817  1.057151
  S    11.560094 11.395446  0.943241
  S    11.100692  8.561738  5.040888
  S    11.466257 12.360711  4.972978
