16  
    
  C     8.955164  7.250141  2.547767
  C     8.776042 11.138406  2.311482
  C     7.838838  6.512543  2.094353
  C     7.687164 10.451897  1.731250
  N     9.968140  7.315374  1.697309
  N     9.776673 11.494255  1.522175
  N     7.920066  6.191783  0.794088
  N     7.840106 10.228072  0.437122
  N     7.526635  6.999035  4.680928
  N     7.143264 10.701242  4.268670
  S     6.606977  6.298330  3.426934
  S     6.412694 10.093018  2.886291
  S     9.450213  6.661148  0.283159
  S     9.347254 10.931908 -0.004507
  S     9.048820  7.465029  4.268376
  S     8.721388 11.218130  4.035094
