16  
    
  C     6.776556  5.929619  1.490290
  C     7.232915  9.956622  2.478436
  C     5.697411  5.107021  0.984478
  C     5.953250  9.528500  1.913739
  N     7.882507  5.989682  0.718204
  N     8.255155 10.041189  1.614399
  N     5.852676  4.699565 -0.282054
  N     6.052659  9.196695  0.599324
  N     5.112623  5.809691  3.433337
  N     5.694515  9.747627  4.517145
  S     4.418906  4.926390  2.205662
  S     4.697750  9.509112  3.144798
  S     7.422719  5.171622 -0.655580
  S     7.599437  9.463484  0.160240
  S     6.587245  6.335190  3.098979
  S     7.204345 10.298680  4.132984
