16  
    
  C     4.563993  5.186546  1.642549
  C     4.414267  8.445231  1.517365
  C     3.344737  4.737479  1.050365
  C     3.172535  7.959513  0.884365
  N     5.525993  5.248007  0.743975
  N     5.433189  8.592659  0.689844
  N     3.318568  4.540932 -0.263260
  N     3.346850  7.649298 -0.394097
  N     2.774332  4.849113  3.533457
  N     2.601042  8.647938  3.294639
  S     2.024830  4.493268  2.112843
  S     1.882580  7.910601  2.024361
  S     4.868928  4.865593 -0.797420
  S     4.894057  8.036506 -0.807705
  S     4.332768  5.465851  3.412697
  S     4.219465  8.885797  3.180140
