16  
    
  C     4.425219  5.135377  1.686937
  C     4.568044  8.431803  1.492349
  C     3.238317  4.605453  1.091461
  C     3.348969  8.046725  0.833888
  N     5.455854  5.437773  0.935365
  N     5.619631  8.502623  0.692991
  N     3.376069  4.548085 -0.229128
  N     3.500593  7.792921 -0.454214
  N     2.851698  4.786699  3.615875
  N     2.694807  8.664039  3.187101
  S     1.958144  4.475550  2.252756
  S     2.010614  7.865271  1.903745
  S     5.001784  4.954653 -0.579572
  S     5.052824  8.061839 -0.807387
  S     4.386799  5.340743  3.364783
  S     4.305030  8.900312  3.113601
