16  
    
  C    12.115099  8.909561  3.515130
  C    11.906889 12.422747  3.344695
  C    10.978785  8.522656  2.755005
  C    10.622950 12.051271  2.836993
  N    13.186948  9.035561  2.775603
  N    12.893181 12.555924  2.435536
  N    11.192255  8.349533  1.447975
  N    10.585995 12.090754  1.497868
  N    10.215579  8.569749  5.238308
  N    10.231916 12.037381  5.357846
  S     9.521535  8.338582  3.702142
  S     9.316175 11.873157  3.922626
  S    12.736146  8.803219  1.158344
  S    12.176019 12.213715  0.994761
  S    11.790589  8.988638  5.268045
  S    11.959411 12.367909  5.106908
