16  
    
  C     8.570966  6.704018  2.387070
  C     8.386232 10.299848  2.459097
  C     7.371747  6.111374  1.836884
  C     7.207367  9.757116  1.849857
  N     9.512898  6.853357  1.438600
  N     9.409066 10.414685  1.632802
  N     7.297531  6.056997  0.503388
  N     7.348979  9.566307  0.544141
  N     6.906738  6.214335  4.311815
  N     6.536210 10.146469  4.220243
  S     6.079589  5.917772  2.928711
  S     5.854100  9.509988  2.842718
  S     8.836089  6.548454 -0.023095
  S     8.915496  9.987792  0.165433
  S     8.481936  6.773315  4.127010
  S     8.122828 10.552989  4.153992
