16  
    
  C    10.975435  7.728065  3.183750
  C    11.374983 11.880483  2.959570
  C     9.797963  7.488156  2.328289
  C    10.272265 11.119487  2.422881
  N    12.113202  7.872038  2.508766
  N    12.389085 11.995915  2.132461
  N    10.034404  7.430721  0.999276
  N    10.397852 10.758861  1.151407
  N     9.019251  7.594253  4.789080
  N     9.851748 11.487940  4.982414
  S     8.324566  7.462190  3.247356
  S     9.066043 10.916316  3.596403
  S    11.699992  7.596350  0.882470
  S    11.905670 11.418903  0.672619
  S    10.616125  7.838377  4.859237
  S    11.306465 12.340611  4.627412
