16  
    
  C     9.179065  6.918843  2.411082
  C     8.888281 10.857597  2.313809
  C     7.979966  6.378921  1.856024
  C     7.722559 10.302744  1.694835
  N    10.203176  7.057161  1.579993
  N     9.966591 10.944095  1.548463
  N     8.082716  6.277116  0.521457
  N     7.843931 10.103809  0.412899
  N     7.565274  6.892381  4.404809
  N     7.160972 10.697557  4.204426
  S     6.713990  6.389843  3.109504
  S     6.434446 10.048381  2.825486
  S     9.603113  6.787450  0.058551
  S     9.446917 10.548979 -0.001576
  S     9.127892  7.323211  4.106766
  S     8.749939 11.199035  3.986409
