16  
    
  C     8.058146  6.327646  2.261836
  C     8.077804 10.104682  2.236761
  C     6.868484  5.910451  1.647715
  C     6.845318  9.776379  1.646468
  N     9.056993  6.551065  1.413341
  N     9.095070 10.186650  1.380788
  N     6.880380  5.839376  0.339423
  N     6.858686  9.719748  0.312159
  N     6.329433  6.081140  4.114760
  N     6.314037  9.873318  4.131164
  S     5.518046  5.648586  2.701622
  S     5.535334  9.528451  2.712091
  S     8.424230  6.238501 -0.086408
  S     8.420494  9.900792 -0.127294
  S     7.898306  6.388998  4.008002
  S     7.867210 10.484451  3.985472
