16  
    
  C     8.332032  6.855636  2.416008
  C     8.855376 10.307189  2.778063
  C     7.229519  6.237234  1.668534
  C     7.576915  9.991052  2.112413
  N     9.495973  7.020765  1.785152
  N     9.926122 10.412656  2.019756
  N     7.508537  6.083429  0.370086
  N     7.722613  9.869748  0.782921
  N     6.565510  6.331453  4.202204
  N     7.064166 10.278529  4.659308
  S     5.894392  5.939446  2.780765
  S     6.248870  9.921513  3.254668
  S     9.133347  6.583656  0.188356
  S     9.297808 10.243580  0.400462
  S     8.136128  6.898197  4.106372
  S     8.735860 10.539909  4.528317
