16  
    
  C     6.800182  5.864979  1.502266
  C     7.221468  9.915703  2.423299
  C     5.664898  5.157850  1.005344
  C     5.968166  9.503645  1.909477
  N     7.818417  6.073534  0.690887
  N     8.226574 10.005761  1.580757
  N     5.883103  4.694296 -0.230299
  N     5.982183  9.222197  0.628994
  N     5.112853  5.794659  3.413999
  N     5.656302  9.774273  4.449603
  S     4.462473  4.919716  2.235841
  S     4.738196  9.526188  3.141093
  S     7.409619  5.204465 -0.638118
  S     7.638409  9.443983  0.186164
  S     6.657847  6.367940  3.150602
  S     7.191315 10.302538  4.148060
