16  
    
  C     3.767608  4.748916  1.594825
  C     3.783276  8.364299  1.722723
  C     2.460361  4.493633  0.953138
  C     2.584496  7.904776  1.059570
  N     4.827886  4.628283  0.771431
  N     4.819034  8.524652  0.896329
  N     2.531331  4.468026 -0.374494
  N     2.814956  7.446526 -0.180934
  N     2.046823  4.797250  3.426612
  N     1.962076  8.393586  3.475828
  S     1.123401  4.476259  2.081491
  S     1.214889  7.914814  2.057803
  S     4.160646  4.372912 -0.706225
  S     4.372782  7.854274 -0.521104
  S     3.691159  4.904040  3.299180
  S     3.558464  8.821390  3.379810
