16  
    
  C     9.722324  7.440787  2.854771
  C     9.697598 11.044111  2.872036
  C     8.604114  6.907337  2.131930
  C     8.579212 10.559620  2.192459
  N    10.795417  7.761061  2.106760
  N    10.754110 11.286501  2.075622
  N     8.733572  6.914767  0.799846
  N     8.654475 10.495728  0.864144
  N     7.888052  6.918649  4.547537
  N     7.939388 10.760034  4.688869
  S     7.170023  6.601946  3.113094
  S     7.244364 10.204938  3.294934
  S    10.292973  7.388931  0.522461
  S    10.226641 10.932889  0.502494
  S     9.389117  7.579775  4.532024
  S     9.530064 11.186246  4.605187
