16  
    
  C    11.578518  8.716472  3.211145
  C    11.350936 12.334396  3.304007
  C    10.432938  8.042473  2.642190
  C    10.251581 11.730076  2.584255
  N    12.501839  9.053204  2.323750
  N    12.378575 12.606654  2.505943
  N    10.500163  7.764670  1.325959
  N    10.396190 11.711323  1.256169
  N     9.984235  8.294696  5.187909
  N     9.499678 11.887963  4.950615
  S     9.159464  7.767021  3.813714
  S     8.913867 11.357351  3.546017
  S    11.905705  8.476751  0.875763
  S    11.920445 12.221522  0.912240
  S    11.474949  8.909821  4.941693
  S    11.083140 12.252418  5.085569
