16  
    
  C    12.720413  8.909168  3.592239
  C    12.358278 12.820852  3.872895
  C    11.503960  8.425135  3.016607
  C    11.212764 12.255651  3.194488
  N    13.740869  8.961962  2.705276
  N    13.348042 13.183549  3.052487
  N    11.511660  8.308575  1.667830
  N    11.390488 12.069033  1.904877
  N    10.921369  8.597421  5.572689
  N    10.472763 12.509234  5.581608
  S    10.111099  8.191020  4.092229
  S     9.940932 11.741039  4.204137
  S    13.023197  8.698865  1.212890
  S    12.889768 12.573231  1.536361
  S    12.499525  9.124761  5.312163
  S    12.076731 13.146625  5.580525
