16  
    
  C    12.533162  9.013824  3.435484
  C    12.230305 12.843805  3.577615
  C    11.343257  8.537973  2.745762
  C    11.118545 12.055722  3.055095
  N    13.548697  9.292489  2.641909
  N    13.190636 13.190843  2.702822
  N    11.568788  8.289208  1.457157
  N    11.185568 11.944611  1.733522
  N    10.764465  8.615375  5.267926
  N    10.707767 12.329897  5.553703
  S     9.979383  8.254755  3.885483
  S     9.837371 11.851334  4.168184
  S    13.099358  8.877525  1.082610
  S    12.680652 12.626972  1.264668
  S    12.384792  9.032308  5.089171
  S    12.110371 13.152399  5.299752
