16  
    
  C     4.537863  5.096926  1.619946
  C     4.138418  8.685644  1.654929
  C     3.258877  4.780075  1.017220
  C     3.000525  8.330248  0.785292
  N     5.502984  4.998136  0.729339
  N     5.190868  9.151683  0.966361
  N     3.217899  4.624205 -0.298034
  N     3.324405  8.333911 -0.503293
  N     2.710318  5.066062  3.495150
  N     2.207021  8.010386  3.223123
  S     1.907933  4.596891  2.093831
  S     1.663857  7.699261  1.702419
  S     4.794261  4.826821 -0.768779
  S     4.887225  8.904657 -0.600284
  S     4.370986  5.228758  3.426484
  S     3.762663  8.438043  3.336508
