16  
    
  C    10.690795  8.465276  3.177129
  C    10.718680 11.848143  3.191524
  C     9.515202  7.831195  2.549260
  C     9.551237 11.391566  2.489696
  N    11.740777  8.564795  2.348113
  N    11.772194 12.001537  2.410524
  N     9.707158  7.487133  1.264016
  N     9.723046 11.259031  1.199523
  N     8.967896  8.179288  5.106281
  N     8.873872 11.759657  4.898319
  S     8.239607  7.543284  3.715015
  S     8.204756 11.168673  3.509306
  S    11.196181  8.021260  0.882293
  S    11.344803 11.550017  0.884803
  S    10.560000  8.779482  4.875662
  S    10.500848 12.046793  4.939368
