16  
    
  C     8.288299  6.638355  2.671999
  C     8.774425 10.522802  2.830858
  C     7.180396  6.011253  1.912543
  C     7.541608 10.060694  2.160150
  N     9.374982  6.838087  1.914287
  N     9.803097 10.695143  2.038344
  N     7.326214  5.966278  0.593252
  N     7.657251  9.830216  0.856469
  N     6.271455  6.285033  4.270771
  N     6.904801 10.354821  4.624680
  S     5.728683  5.864083  2.786950
  S     6.149450  9.952711  3.192147
  S     8.847342  6.494458  0.295359
  S     9.235835 10.115686  0.484064
  S     7.869469  6.840839  4.354073
  S     8.579590 10.514264  4.538392
