16  
    
  C     3.622045  4.529365  1.586667
  C     3.794177  8.370419  1.605824
  C     2.455869  3.870041  1.011692
  C     2.582506  8.044682  0.940821
  N     4.589394  4.818094  0.729894
  N     4.790250  8.643611  0.786731
  N     2.486569  3.794330 -0.316881
  N     2.651157  7.957370 -0.374971
  N     1.959060  4.113970  3.547507
  N     2.047591  7.943160  3.521906
  S     1.181466  3.467690  2.168811
  S     1.232644  7.797509  2.034715
  S     3.938436  4.579961 -0.793632
  S     4.233721  8.372596 -0.769592
  S     3.428314  4.753282  3.290463
  S     3.624932  8.399366  3.362569
