16  
    
  C    10.978571  7.868181  3.139788
  C    11.515719 11.951371  3.025747
  C     9.744437  7.487042  2.429148
  C    10.400216 11.266032  2.430789
  N    12.083457  8.000275  2.373074
  N    12.561220 12.059408  2.194679
  N     9.972733  7.380603  1.102829
  N    10.581199 10.848727  1.167257
  N     9.028540  7.883006  4.840373
  N     9.737620 11.530921  4.971453
  S     8.337752  7.344767  3.420635
  S     9.130797 10.896586  3.518519
  S    11.587399  7.579767  0.815682
  S    12.100721 11.431102  0.764221
  S    10.712226  8.118881  4.823004
  S    11.306536 12.226895  4.798652
