16  
    
  C     5.358751  5.638412  1.735273
  C     5.184379  8.788207  1.763345
  C     4.216138  5.250531  0.995164
  C     3.934873  8.618463  1.079883
  N     6.485625  5.513461  1.020109
  N     6.219563  9.066335  0.966732
  N     4.385233  5.126836 -0.332317
  N     4.051396  8.597834 -0.263057
  N     3.396279  5.313972  3.439106
  N     3.400586  8.433286  3.594601
  S     2.767129  5.143980  1.876445
  S     2.620565  8.238501  2.143300
  S     5.998297  5.287824 -0.538401
  S     5.582788  9.007393 -0.567888
  S     5.023488  5.767759  3.454724
  S     5.024802  8.912550  3.500389
