16  
    
  C    11.376612  8.521146  3.374467
  C    11.494272 12.421076  3.311570
  C    10.237822  7.894439  2.787015
  C    10.325239 11.788688  2.704271
  N    12.385928  8.680741  2.524110
  N    12.519191 12.594755  2.489692
  N    10.365823  7.646470  1.497003
  N    10.530746 11.346051  1.468122
  N     9.479755  8.557576  5.203804
  N     9.582553 12.302975  5.099147
  S     8.936565  7.713372  3.863357
  S     8.922980 11.578360  3.736002
  S    11.907281  8.099711  1.050363
  S    12.010031 11.935433  1.008561
  S    11.059933  9.158381  4.990168
  S    11.192581 12.715597  5.042932
