16  
    
  C    12.666261  8.777655  3.552744
  C    12.230646 13.033906  3.732854
  C    11.443618  8.430742  2.920307
  C    11.139481 12.301288  3.115347
  N    13.612289  9.091304  2.675370
  N    13.271307 13.143028  2.915037
  N    11.470775  8.324288  1.580841
  N    11.269953 11.979467  1.823581
  N    10.864033  8.697430  5.329983
  N    10.524465 12.555473  5.597325
  S    10.163019  8.242254  3.995309
  S     9.955289 11.727574  4.235501
  S    12.997482  8.750164  1.138258
  S    12.805095 12.600316  1.448451
  S    12.464562  9.106951  5.259714
  S    12.028306 13.103782  5.455058
