16  
    
  C     5.142575  5.142614  1.977034
  C     5.173231  8.569227  1.948856
  C     3.873272  4.952314  1.333849
  C     3.951781  8.298104  1.170661
  N     6.152241  5.185471  1.089652
  N     6.292828  8.585157  1.245317
  N     3.874958  4.916289  0.005287
  N     4.156340  8.049958 -0.117266
  N     3.363585  5.018740  3.932501
  N     3.186094  8.919704  3.577312
  S     2.572617  4.882557  2.434973
  S     2.482115  8.456806  2.139195
  S     5.471939  4.917004 -0.401146
  S     5.849850  8.253014 -0.352616
  S     5.023990  5.118109  3.732401
  S     4.864806  8.842968  3.652606
