16  
    
  C     3.608882  4.556345  1.586289
  C     3.698605  8.444928  1.501676
  C     2.409327  3.967546  0.976017
  C     2.445507  8.009283  0.855069
  N     4.467635  4.982018  0.650738
  N     4.738631  8.556723  0.658281
  N     2.440486  3.674819 -0.330905
  N     2.528028  8.132587 -0.463756
  N     1.996314  3.891307  3.539318
  N     1.966638  8.163038  3.351215
  S     1.246988  3.394112  2.050877
  S     1.156092  7.653131  1.910928
  S     3.951266  4.278976 -0.783099
  S     4.117425  8.452109 -0.855937
  S     3.466428  4.643416  3.360184
  S     3.544750  8.553980  3.190963
