16  
    
  C     5.367180  5.652030  1.725614
  C     5.193969  8.802748  1.767742
  C     4.221234  5.276139  0.991741
  C     3.926443  8.617204  1.069570
  N     6.483099  5.517456  1.018328
  N     6.234721  9.066107  0.972474
  N     4.393410  5.121442 -0.324912
  N     4.050444  8.615664 -0.266130
  N     3.409421  5.318044  3.423954
  N     3.388728  8.445065  3.592773
  S     2.776039  5.134094  1.871754
  S     2.620842  8.223344  2.139765
  S     6.000568  5.294469 -0.539125
  S     5.609863  9.002835 -0.571228
  S     5.005809  5.765541  3.446089
  S     5.030315  8.910439  3.512373
