16  
    
  C     5.615201  5.437765  1.968630
  C     5.556353  9.015092  1.866981
  C     4.401730  4.816235  1.407342
  C     4.404706  8.413694  1.187191
  N     6.504133  5.720852  1.015611
  N     6.620650  9.213914  1.091422
  N     4.519219  4.371683  0.157502
  N     4.570474  8.353463 -0.144259
  N     4.080929  4.907138  3.984269
  N     3.881157  8.427249  3.724510
  S     3.208203  4.394310  2.610444
  S     3.121947  8.133018  2.340083
  S     5.919231  5.087275 -0.427757
  S     6.104670  8.857959 -0.455883
  S     5.537047  5.714332  3.727390
  S     5.389409  9.118004  3.594259
