16  
    
  C    10.904908  8.191288  2.962449
  C    10.795541 11.873688  3.058514
  C     9.685103  7.772485  2.249942
  C     9.690441 11.288664  2.383242
  N    11.962468  8.294411  2.157661
  N    11.868014 12.050206  2.289215
  N     9.820605  7.567866  0.923884
  N     9.790759 11.222515  1.049278
  N     9.132515  7.945391  4.839401
  N     8.968615 11.699572  4.836722
  S     8.350237  7.621254  3.343771
  S     8.313296 11.161926  3.397402
  S    11.375473  8.033000  0.580901
  S    11.432058 11.643040  0.746880
  S    10.768043  8.434372  4.647829
  S    10.553507 12.244336  4.732763
