16  
    
  C     4.495190  4.952841  1.276414
  C     4.230385  8.576596  1.576144
  C     3.190846  4.696961  0.699245
  C     3.140095  8.071561  0.755098
  N     5.425010  5.175595  0.335209
  N     5.374532  8.797256  0.915677
  N     3.196004  4.442737 -0.600072
  N     3.351338  8.188347 -0.545966
  N     2.691918  4.950275  3.240689
  N     2.346297  7.833678  3.261925
  S     1.897056  4.686901  1.797502
  S     1.718558  7.721246  1.692151
  S     4.649320  4.855127 -1.125212
  S     4.972830  8.595932 -0.727990
  S     4.364968  5.124881  3.060649
  S     3.879018  8.500579  3.281358
