16  
    
  C     4.421983  5.039455  1.759535
  C     4.190589  8.655841  1.593899
  C     3.209306  4.752499  1.027844
  C     3.083850  8.097641  0.818898
  N     5.498475  5.192138  0.983068
  N     5.248277  9.031610  0.868818
  N     3.431682  4.424889 -0.270758
  N     3.244996  8.217588 -0.507438
  N     2.719779  4.865823  3.637741
  N     2.287619  8.161462  3.288096
  S     1.853947  4.818473  2.238775
  S     1.704290  7.777400  1.843218
  S     5.038178  4.790429 -0.570194
  S     4.781426  8.824340 -0.764843
  S     4.345424  5.334228  3.443917
  S     3.870801  8.620965  3.321892
