16  
    
  C    11.781831  8.539380  3.404727
  C    11.610185 12.036908  3.407830
  C    10.584548  8.323618  2.670184
  C    10.378980 11.672595  2.748830
  N    12.893197  8.658854  2.658997
  N    12.695368 12.137553  2.638349
  N    10.770958  8.213698  1.338549
  N    10.576131 11.451039  1.468439
  N    10.009980  8.376624  5.211668
  N     9.801084 11.557943  5.342143
  S     9.184329  8.224446  3.719880
  S     9.015806 11.325825  3.865024
  S    12.387921  8.337017  1.120766
  S    12.169346 11.858777  1.110214
  S    11.640136  8.699876  5.112675
  S    11.448303 11.948067  5.085655
