16  
    
  C    12.334178  8.973911  3.782343
  C    12.597758 12.833144  3.514839
  C    11.141138  8.458771  3.152719
  C    11.339362 12.486928  2.910953
  N    13.311768  9.207076  2.925244
  N    13.640612 12.902308  2.677545
  N    11.239409  8.131773  1.869643
  N    11.422264 12.281952  1.598685
  N    10.629927  8.860744  5.702041
  N    10.843408 12.374162  5.346287
  S     9.842257  8.183489  4.321601
  S    10.005592 12.241342  3.966154
  S    12.843909  8.581225  1.456588
  S    12.989629 12.652146  1.178237
  S    12.214737  9.261967  5.536971
  S    12.459305 12.880829  5.302726
