16  
    
  C    10.920246  8.143865  2.955155
  C    10.877824 11.614849  2.788515
  C     9.747582  7.471889  2.521243
  C     9.646800 11.184243  2.147320
  N    11.823880  8.311094  2.014743
  N    11.838759 11.891035  1.939086
  N     9.738625  7.132909  1.231543
  N     9.756822 11.098383  0.822966
  N     9.544955  7.654357  5.188279
  N     9.190939 11.474436  4.707326
  S     8.697090  7.044092  3.842786
  S     8.396614 10.912479  3.351675
  S    11.159064  7.723529  0.640908
  S    11.316689 11.456205  0.392577
  S    11.013732  8.382707  4.734599
  S    10.813188 11.700512  4.493171
