16  
    
  C     9.797016  7.609491  2.631283
  C     9.806385 11.263094  2.906328
  C     8.579013  7.177724  2.029807
  C     8.744615 10.611688  2.277469
  N    10.836778  7.843744  1.854748
  N    10.870443 11.516623  2.144004
  N     8.700266  7.060655  0.720509
  N     8.887554 10.450852  0.954193
  N     8.118193  7.332739  4.575389
  N     8.080902 10.634743  4.748668
  S     7.260179  7.050708  3.176844
  S     7.363017 10.308071  3.306128
  S    10.299934  7.453310  0.317082
  S    10.450149 11.033234  0.632542
  S     9.706361  7.674325  4.380999
  S     9.537522 11.402176  4.692925
