16  
    
  C     7.649823  6.277433  2.293798
  C     7.776834  9.998170  2.436393
  C     6.350302  5.999609  1.822609
  C     6.594624  9.591784  1.787218
  N     8.525410  6.522250  1.304739
  N     8.826351 10.208682  1.619058
  N     6.267075  5.796828  0.505378
  N     6.688573  9.553332  0.456998
  N     6.042908  6.340771  4.282996
  N     5.866944  9.812371  4.190157
  S     5.152232  5.937736  3.029435
  S     5.212435  9.362331  2.748844
  S     7.770903  6.168711 -0.108536
  S     8.324965  9.880638  0.102315
  S     7.653266  6.635564  4.000547
  S     7.445342 10.313219  4.163482
