16  
    
  C    10.717784  8.459228  3.172982
  C    10.688235 11.913947  3.180260
  C     9.549449  7.825289  2.597137
  C     9.547290 11.399553  2.509250
  N    11.739333  8.593402  2.337705
  N    11.770621 11.989317  2.428054
  N     9.719541  7.513891  1.324758
  N     9.744388 11.301877  1.192374
  N     8.931268  8.201322  5.110605
  N     8.890559 11.757265  4.953050
  S     8.264085  7.516924  3.723908
  S     8.197692 11.120652  3.557444
  S    11.205775  8.000529  0.917584
  S    11.306702 11.553303  0.890384
  S    10.574173  8.777412  4.907330
  S    10.520302 12.042679  4.951944
