16  
    
  C    12.728678  9.218733  3.690359
  C    12.845292 12.498217  3.536187
  C    11.512261  8.594935  3.206434
  C    11.555716 12.220281  2.880196
  N    13.642638  9.418276  2.729942
  N    13.795263 12.791756  2.651091
  N    11.484415  8.365401  1.889729
  N    11.639634 12.101200  1.551527
  N    11.241604  8.628968  5.736574
  N    11.071738 12.288939  5.407437
  S    10.250980  8.229039  4.339058
  S    10.273242 11.870483  4.028623
  S    12.981193  8.863228  1.276971
  S    13.214228 12.515121  1.146880
  S    12.789552  9.231681  5.368426
  S    12.710499 12.740415  5.286813
