16  
    
  C     7.839032  6.419621  2.347694
  C     7.948235 10.511362  2.057866
  C     6.714026  5.862972  1.634141
  C     6.724761  9.880506  1.604501
  N     8.919903  6.619274  1.635198
  N     8.866971 10.719568  1.115704
  N     6.867794  5.852456  0.321980
  N     6.759341  9.562771  0.332202
  N     5.901140  6.367068  4.045155
  N     6.490000 10.257204  4.125682
  S     5.303281  5.795441  2.578475
  S     5.526308  9.815352  2.847884
  S     8.483969  6.350448  0.067458
  S     8.310526 10.076031 -0.256249
  S     7.548063  6.583336  4.010467
  S     8.029512 10.770331  3.731383
