16  
    
  C     6.067857  5.629842  2.074978
  C     6.056615  9.142661  1.562483
  C     4.781944  5.415385  1.510686
  C     4.820544  8.704207  0.973069
  N     7.112049  5.564611  1.264582
  N     7.069393  9.385481  0.729403
  N     4.759293  5.221080  0.186884
  N     4.930930  8.456547 -0.329257
  N     4.438898  5.854798  4.056475
  N     4.219081  9.210743  3.434354
  S     3.530665  5.704458  2.681425
  S     3.459480  8.658095  2.066385
  S     6.396193  5.349049 -0.220118
  S     6.453578  8.849948 -0.784706
  S     6.031056  5.877413  3.781487
  S     5.887804  9.449129  3.288385
