16  
    
  C    12.734432  8.988905  3.799741
  C    12.800085 12.410556  3.702990
  C    11.491136  8.553482  3.224182
  C    11.572997 12.089985  3.063161
  N    13.675515  9.211179  2.911465
  N    13.815500 12.777011  2.917769
  N    11.465901  8.431613  1.903210
  N    11.678246 12.105767  1.730054
  N    11.233535  8.435974  5.821247
  N    10.951712 12.288333  5.506650
  S    10.331388  8.140983  4.413277
  S    10.218611 11.866425  4.111573
  S    13.020295  8.952812  1.371319
  S    13.228019 12.577955  1.388098
  S    12.637952  9.248194  5.572018
  S    12.570496 12.706831  5.427647
