16  
    
  C     5.119604  5.357744  1.966631
  C     5.115437  8.683345  1.541745
  C     3.880516  5.032091  1.364992
  C     3.822927  8.414856  0.912711
  N     6.176383  5.157272  1.171406
  N     6.151847  8.679307  0.718623
  N     3.934617  4.559246  0.140375
  N     3.936795  8.161672 -0.386512
  N     3.302891  5.737349  3.765142
  N     3.354713  8.633038  3.430507
  S     2.489447  5.173518  2.384851
  S     2.497365  8.361762  2.009947
  S     5.528765  4.649792 -0.308306
  S     5.556925  8.353020 -0.768801
  S     4.935693  5.721191  3.677261
  S     5.007564  8.914160  3.247375
