16  
    
  C    11.747604  8.774010  3.508398
  C    11.538576 12.079866  3.322056
  C    10.546352  8.430065  2.811908
  C    10.405800 11.603180  2.490782
  N    12.840319  8.766938  2.735501
  N    12.637176 12.258058  2.619067
  N    10.725295  8.140554  1.520397
  N    10.647683 11.557187  1.172950
  N     9.962291  8.549304  5.361254
  N     9.702077 11.873690  4.972995
  S     9.194213  8.211760  3.907462
  S     8.985110 11.578288  3.508205
  S    12.366992  8.439219  1.188219
  S    12.302989 11.889824  1.052973
  S    11.580232  8.945609  5.259560
  S    11.326718 12.134124  5.030296
