16  
    
  C     4.685544  5.036290  2.092357
  C     4.734018  8.762674  1.541645
  C     3.533453  4.755132  1.297484
  C     3.558038  8.207670  0.859945
  N     5.815491  5.151945  1.410160
  N     5.762370  9.066517  0.748457
  N     3.784424  4.572258 -0.010964
  N     3.685667  8.213130 -0.464242
  N     2.672065  4.877032  3.783479
  N     2.962564  8.334605  3.413945
  S     2.038046  4.547872  2.270069
  S     2.254088  7.834923  1.973934
  S     5.379090  4.864702 -0.212794
  S     5.197250  8.820026 -0.859915
  S     4.313600  5.140851  3.766462
  S     4.550919  8.792338  3.257866
