16  
    
  C     4.339687  5.025913  1.140191
  C     4.341764  8.486967  1.485350
  C     3.071532  4.707622  0.558355
  C     3.189205  7.991924  0.725206
  N     5.368613  5.118748  0.318845
  N     5.429308  8.721331  0.775146
  N     3.187687  4.526418 -0.772472
  N     3.399622  7.867976 -0.573116
  N     2.720861  4.780499  3.106345
  N     2.430821  8.226447  3.155166
  S     1.775917  4.711526  1.735358
  S     1.814330  7.654107  1.667537
  S     4.729380  4.821504 -1.216322
  S     4.948060  8.384565 -0.835811
  S     4.344517  5.196401  2.890392
  S     4.105874  8.372476  3.171744
