16  
    
  C     7.592520  6.285024  2.247986
  C     7.678011 10.090397  2.427172
  C     6.334587  5.822464  1.738503
  C     6.547475  9.568977  1.751105
  N     8.587582  6.410050  1.364234
  N     8.790099 10.304021  1.732179
  N     6.300019  5.801894  0.405851
  N     6.789720  9.401694  0.427806
  N     6.033356  6.387366  4.256133
  N     6.033696  9.598442  4.291683
  S     5.067257  5.735526  2.930176
  S     5.227297  9.277135  2.850490
  S     7.878088  6.216239 -0.125302
  S     8.323711  9.927481  0.149559
  S     7.689019  6.535410  3.960842
  S     7.552609 10.297552  4.152753
