16  
    
  C     8.276572  6.625030  2.679659
  C     8.762988 10.523206  2.833746
  C     7.156694  6.020552  1.912797
  C     7.525751 10.063220  2.152603
  N     9.358236  6.831489  1.919766
  N     9.795773 10.691852  2.042572
  N     7.330215  5.960569  0.595488
  N     7.658667  9.817681  0.862254
  N     6.264087  6.291693  4.278726
  N     6.899773 10.353434  4.625212
  S     5.725040  5.861228  2.796631
  S     6.141006  9.952724  3.192629
  S     8.837563  6.491413  0.307857
  S     9.240908 10.115942  0.477302
  S     7.856825  6.834945  4.351467
  S     8.577618 10.520441  4.534796
