16  
    
  C     5.981803  4.833601  1.772635
  C     5.856423  9.171860  1.958012
  C     4.813599  4.485471  1.016049
  C     4.691519  8.638395  1.354267
  N     7.077374  4.932661  1.032365
  N     6.902544  9.324033  1.159184
  N     5.035306  4.424260 -0.294946
  N     4.784691  8.466873  0.020956
  N     3.974968  4.900216  3.392104
  N     4.121474  8.940247  3.827803
  S     3.345709  4.250803  1.986692
  S     3.386269  8.391973  2.521615
  S     6.615825  4.829065 -0.559223
  S     6.316233  8.941236 -0.330320
  S     5.576132  5.056704  3.532623
  S     5.648676  9.578598  3.627447
