16  
    
  C     9.286798  6.808263  2.359713
  C     9.455452 10.565105  2.757178
  C     8.129219  6.310788  1.688159
  C     8.189597 10.314633  2.167086
  N    10.392808  6.873752  1.616843
  N    10.524552 10.405330  2.021125
  N     8.298074  6.090210  0.395295
  N     8.298493 10.006710  0.873144
  N     7.395808  6.538999  4.108508
  N     7.673578 10.903414  4.587828
  S     6.742514  6.192434  2.652201
  S     6.825997 10.577841  3.217040
  S     9.843074  6.432403  0.097348
  S     9.878343 10.027175  0.536334
  S     9.044936  6.796804  4.120055
  S     9.339704 10.897371  4.478998
