16  
    
  C     7.208230  6.007650  2.196969
  C     7.429252  9.712948  2.496760
  C     6.082964  5.580468  1.381259
  C     6.180738  9.443650  1.758422
  N     8.280673  6.258392  1.450867
  N     8.497373  9.717701  1.727778
  N     6.332829  5.318528  0.115410
  N     6.362169  9.275977  0.448748
  N     5.293576  5.677314  3.781153
  N     5.608152  9.483232  4.211955
  S     4.664939  5.143623  2.307633
  S     4.788602  9.490866  2.805068
  S     7.933418  5.750405 -0.120184
  S     7.944410  9.392369  0.143638
  S     6.853881  6.226755  3.881281
  S     7.211504  9.933394  4.215591
