16  
    
  C    12.720214  8.993621  3.813951
  C    12.801485 12.399653  3.727074
  C    11.476908  8.515639  3.241453
  C    11.551395 12.103383  3.067960
  N    13.693836  9.191260  2.926304
  N    13.799440 12.810363  2.929366
  N    11.488192  8.437432  1.913013
  N    11.671649 12.109454  1.738011
  N    11.209030  8.430865  5.840924
  N    10.949565 12.301993  5.521530
  S    10.312846  8.128134  4.416302
  S    10.195013 11.855647  4.110110
  S    13.031279  8.964016  1.374979
  S    13.247102 12.569627  1.417460
  S    12.648334  9.248629  5.561817
  S    12.569887 12.705015  5.445400
