16  
    
  C    11.840396  8.745033  3.322796
  C    11.524282 12.442788  3.135903
  C    10.612984  8.190294  2.859679
  C    10.371340 11.756285  2.564643
  N    12.780482  8.830007  2.424752
  N    12.563817 12.668473  2.330405
  N    10.568610  7.947970  1.557538
  N    10.628747 11.318550  1.324615
  N    10.366472  8.588653  5.420516
  N     9.852390 11.882462  4.976384
  S     9.409824  8.124862  4.136891
  S     9.071548 11.312813  3.691964
  S    12.108627  8.248466  0.984074
  S    12.123124 12.045108  0.882784
  S    11.866154  9.112104  5.007897
  S    11.359095 12.444437  4.856555
