16  
    
  C    12.670431  9.114926  3.552466
  C    12.741192 12.696871  3.452994
  C    11.435873  8.594478  3.035856
  C    11.559034 12.171896  2.828703
  N    13.606080  9.440041  2.658404
  N    13.790389 12.891703  2.668725
  N    11.563134  8.248902  1.757091
  N    11.652493 12.185826  1.520199
  N    11.211081  8.831470  5.593967
  N    11.145672 12.332891  5.364854
  S    10.280791  8.293763  4.373550
  S    10.276806 11.883421  3.990523
  S    12.988669  8.894648  1.256512
  S    13.239559 12.448217  1.114340
  S    12.808449  9.217885  5.322110
  S    12.718219 12.734713  5.174120
