16  
    
  C     9.182389  6.738981  2.367275
  C     9.135280 10.817024  2.973799
  C     7.963733  6.285329  1.750487
  C     7.914316 10.390382  2.412614
  N    10.248665  6.817585  1.552984
  N    10.145478 10.954802  2.131914
  N     8.197137  5.767024  0.531041
  N     8.013221 10.006444  1.124700
  N     7.405564  7.047665  4.164742
  N     7.370466 10.965048  4.876039
  S     6.615876  6.312308  2.919320
  S     6.560931 10.547028  3.482402
  S     9.772028  6.102760  0.166581
  S     9.568755 10.431763  0.672050
  S     9.077907  7.248889  4.029675
  S     9.009660 11.219667  4.723773
