16  
    
  C     6.465565  5.727398  2.054390
  C     6.124417  9.272351  1.841128
  C     5.277825  5.352460  1.393092
  C     4.943637  8.802616  1.165851
  N     7.488094  5.963900  1.250880
  N     7.159882  9.353569  1.028736
  N     5.410629  5.104065  0.094175
  N     5.024444  8.660057 -0.165361
  N     4.670404  5.731517  3.936646
  N     4.302350  8.903348  3.676670
  S     4.002896  5.174237  2.463684
  S     3.588634  8.543635  2.191561
  S     6.976365  5.511243 -0.265460
  S     6.599349  8.934667 -0.507891
  S     6.239908  6.097068  3.748754
  S     5.956614  9.355495  3.581342
