16  
    
  C     6.798090  6.062899  2.359589
  C     7.261008  9.571535  2.086128
  C     5.724441  5.368219  1.667874
  C     5.945451  9.335313  1.475248
  N     7.724254  6.574833  1.572419
  N     8.292771  9.740512  1.281467
  N     5.945153  5.336486  0.367442
  N     6.104216  9.234671  0.152804
  N     5.075567  5.408058  4.162835
  N     5.582895  9.824993  3.964315
  S     4.424940  4.806821  2.697395
  S     4.629560  9.368632  2.623544
  S     7.339656  6.181559  0.014963
  S     7.690499  9.523212 -0.285021
  S     6.571451  6.209876  4.085461
  S     7.166814  9.763467  3.787784
