16  
    
  C     4.597613  5.053548  1.981099
  C     4.674546  8.688483  1.443495
  C     3.389975  4.688283  1.266062
  C     3.529866  8.139711  0.786558
  N     5.662808  5.358823  1.239857
  N     5.746789  8.870670  0.684235
  N     3.613533  4.602139 -0.046008
  N     3.631801  7.977835 -0.521602
  N     2.632142  4.978560  3.697690
  N     2.886058  8.330700  3.268205
  S     2.002831  4.459783  2.229526
  S     2.163415  7.926490  1.799838
  S     5.188241  4.903787 -0.290480
  S     5.221812  8.414441 -0.872339
  S     4.337049  5.180432  3.715246
  S     4.481829  8.804879  3.140338
