16  
    
  C    10.917272  8.136930  2.950200
  C    10.892813 11.605779  2.780379
  C     9.741326  7.473056  2.521456
  C     9.651265 11.196868  2.150597
  N    11.839775  8.304412  2.027829
  N    11.844451 11.901460  1.933957
  N     9.729464  7.128188  1.240368
  N     9.755237 11.091941  0.836715
  N     9.536018  7.636269  5.187542
  N     9.204831 11.457813  4.700575
  S     8.692087  7.046973  3.841993
  S     8.394824 10.919514  3.351574
  S    11.152396  7.721198  0.645226
  S    11.325516 11.451077  0.386708
  S    11.015022  8.366474  4.734368
  S    10.808670 11.709904  4.481616
