16  
    
  C    10.962069  7.743235  3.113084
  C    11.088573 11.688180  2.730718
  C     9.672262  7.356507  2.546682
  C     9.882412 11.165080  2.171201
  N    11.921309  7.958345  2.217479
  N    12.060098 11.936527  1.831972
  N     9.709053  7.265426  1.202056
  N     9.922739 10.919344  0.844602
  N     9.353806  7.597045  5.083795
  N     9.435847 11.352248  4.702012
  S     8.493843  7.131940  3.740254
  S     8.556124 11.017163  3.349876
  S    11.206177  7.771595  0.704063
  S    11.479312 11.366903  0.414947
  S    10.944552  7.853150  4.859455
  S    10.919668 12.004885  4.451867
