16  
    
  C    10.917597  8.126660  2.958215
  C    10.909801 11.595134  2.763775
  C     9.728067  7.470343  2.527767
  C     9.659709 11.213764  2.159349
  N    11.864175  8.297141  2.045425
  N    11.862059 11.914341  1.920387
  N     9.715886  7.123807  1.252112
  N     9.750937 11.079031  0.855738
  N     9.526379  7.611359  5.177597
  N     9.224604 11.430522  4.690799
  S     8.682583  7.051495  3.841576
  S     8.391529 10.930031  3.349728
  S    11.143916  7.717512  0.649385
  S    11.337547 11.445646  0.382061
  S    11.015076  8.341425  4.732567
  S    10.803958 11.725682  4.467059
