16  
    
  C    10.676178  8.456263  3.172981
  C    10.743778 11.820129  3.206759
  C     9.510735  7.833909  2.542835
  C     9.551680 11.395739  2.486161
  N    11.734935  8.557342  2.357243
  N    11.784304 12.008068  2.403926
  N     9.689758  7.478418  1.245251
  N     9.711574 11.228946  1.188326
  N     8.995862  8.166222  5.093862
  N     8.862529 11.757475  4.887016
  S     8.231673  7.558105  3.710300
  S     8.205504 11.189913  3.491464
  S    11.198351  8.029250  0.861604
  S    11.359035 11.551953  0.882060
  S    10.548180  8.776295  4.860661
  S    10.490238 12.049035  4.925694
