16  
    
  C     5.575090  5.484336  1.937506
  C     5.548999  8.963552  1.848246
  C     4.399508  4.799317  1.432044
  C     4.404148  8.433728  1.151668
  N     6.485064  5.730106  0.995216
  N     6.593357  9.245828  1.071437
  N     4.519003  4.439043  0.144434
  N     4.586843  8.306868 -0.168310
  N     4.069928  4.869107  4.036975
  N     3.856907  8.440713  3.726369
  S     3.202513  4.469879  2.632621
  S     3.070307  8.146191  2.249073
  S     5.906364  5.120534 -0.416155
  S     6.104367  8.824050 -0.462901
  S     5.548988  5.687836  3.688080
  S     5.372450  9.125941  3.605569
