16  
    
  C    12.079509  8.608557  3.339840
  C    12.182352 12.124725  3.287815
  C    10.781608  8.234912  2.765277
  C    10.983302 11.579890  2.625827
  N    13.088448  8.688429  2.433476
  N    13.129734 12.397109  2.409069
  N    10.760236  8.167077  1.443712
  N    11.139755 11.294338  1.348509
  N    10.342623  8.434070  5.214605
  N    10.284353 11.999614  5.030899
  S     9.510917  8.071995  3.889014
  S     9.543323 11.554388  3.644281
  S    12.326506  8.347556  0.941725
  S    12.557233 11.936040  0.859837
  S    11.980588  8.720905  5.081122
  S    11.856175 12.370322  5.007040
