16  
    
  C    10.995135  7.733450  3.160646
  C    11.460199 11.717442  2.890950
  C     9.780131  7.590236  2.368645
  C    10.245753 11.104188  2.434839
  N    12.133138  7.713413  2.467560
  N    12.355113 12.035509  1.936000
  N     9.975814  7.492705  1.060019
  N    10.232840 10.858790  1.134458
  N     9.040825  7.545165  4.927210
  N     9.610646 11.724833  4.839337
  S     8.344610  7.354184  3.341633
  S     8.912232 10.897653  3.558371
  S    11.619154  7.646333  0.828346
  S    11.741542 11.386058  0.551298
  S    10.683156  7.679192  4.856134
  S    11.184807 12.227003  4.572181
