16  
    
  C     7.110513  6.025954  1.996659
  C     7.318136  9.762733  2.493964
  C     5.963947  5.478272  1.313610
  C     6.098125  9.445279  1.847601
  N     8.193397  6.223185  1.245132
  N     8.408092  9.717533  1.723487
  N     6.211246  5.154845  0.061802
  N     6.236373  9.166006  0.537689
  N     5.218061  5.810742  3.783860
  N     5.525782  9.694037  4.322201
  S     4.691097  5.000256  2.397720
  S     4.680538  9.596187  2.899218
  S     7.768313  5.653756 -0.288324
  S     7.805575  9.376844  0.151359
  S     6.754460  6.331909  3.664217
  S     7.125377 10.015789  4.198890
