16  
    
  C    11.786174  8.709162  3.513617
  C    11.582901 11.859270  3.320941
  C    10.554561  8.328465  2.816641
  C    10.403289 11.648008  2.552184
  N    12.864026  8.832153  2.761605
  N    12.682005 12.156576  2.610793
  N    10.761447  8.136749  1.541485
  N    10.615256 11.587930  1.236388
  N     9.933204  8.572029  5.306827
  N     9.674747 11.899081  5.102578
  S     9.174358  8.230840  3.886659
  S     8.994315 11.551725  3.519113
  S    12.351544  8.440168  1.206742
  S    12.295072 11.907325  1.037100
  S    11.560649  8.898543  5.190636
  S    11.375646 12.078501  5.034474
