16  
    
  C     5.998104  4.790027  1.706933
  C     5.942821  9.169400  1.968061
  C     4.775453  4.567329  0.977195
  C     4.752091  8.618598  1.354314
  N     7.045459  5.138245  0.948927
  N     6.952932  9.222914  1.102089
  N     5.011931  4.482529 -0.322018
  N     4.804703  8.468965  0.046836
  N     4.099942  4.746085  3.460882
  N     4.184554  8.844796  3.839689
  S     3.394135  4.368805  1.955487
  S     3.380227  8.515445  2.408907
  S     6.576475  4.805193 -0.577598
  S     6.401018  8.844165 -0.389875
  S     5.756670  5.002080  3.356513
  S     5.739624  9.494681  3.678513
