16  
    
  C    11.182328  8.190249  3.178421
  C    11.417733 11.641954  3.298701
  C     9.931476  7.694319  2.625007
  C    10.165568 11.516191  2.613151
  N    12.208859  8.273639  2.309987
  N    12.441027 11.648985  2.464056
  N     9.964434  7.385851  1.318988
  N    10.218386 11.241665  1.324463
  N     9.494586  8.139816  5.176952
  N     9.661265 11.694267  5.174059
  S     8.719561  7.605754  3.781333
  S     8.829284 11.593802  3.722723
  S    11.574638  7.659501  0.875750
  S    11.824533 11.478577  0.870974
  S    11.134849  8.452199  4.899043
  S    11.332017 11.918266  4.970051
