16  
    
  C     7.802522  6.658460  2.400712
  C     7.972797 10.351107  2.035156
  C     6.683231  6.101123  1.724297
  C     6.730247  9.882413  1.568445
  N     8.927871  6.680104  1.688488
  N     8.868033 10.489951  1.030300
  N     6.879556  5.908518  0.416263
  N     6.629473  9.598453  0.275681
  N     5.901784  6.312677  4.136513
  N     6.301427 10.373908  4.039528
  S     5.180741  5.959338  2.587660
  S     5.429303  9.871988  2.713514
  S     8.521831  6.188876  0.140229
  S     8.212560  9.926711 -0.334519
  S     7.470818  6.804180  4.128814
  S     7.928533 10.615862  3.779994
