16  
    
  C     9.318990  6.620381  2.394799
  C     9.354426 10.575355  2.820129
  C     8.118297  6.208659  1.671951
  C     8.081802 10.364895  2.124387
  N    10.422338  6.670801  1.623215
  N    10.442462 10.297220  2.049941
  N     8.330050  6.084144  0.353710
  N     8.237919 10.066220  0.827546
  N     7.352716  6.800498  4.099957
  N     7.480745 10.981322  4.605096
  S     6.676742  6.203156  2.722487
  S     6.725880 10.707174  3.160199
  S     9.935568  6.342977  0.075032
  S     9.869363  9.916542  0.550476
  S     9.011271  7.003785  4.108184
  S     9.160813 10.977429  4.530296
