16  
    
  C     6.895305  5.985643  2.327039
  C     7.289196  9.837373  2.194871
  C     5.787402  5.549652  1.451548
  C     6.001552  9.507781  1.540772
  N     8.010601  6.304297  1.627064
  N     8.339865  9.848114  1.359324
  N     6.156559  5.275803  0.188085
  N     6.123252  9.311473  0.242502
  N     4.778352  5.625234  3.838895
  N     5.437050  9.445551  4.007309
  S     4.339757  5.029119  2.318027
  S     4.676914  9.364162  2.614786
  S     7.710866  5.836056  0.045922
  S     7.659695  9.562256 -0.191659
  S     6.443382  6.123722  4.029310
  S     7.105743  9.905609  3.935659
