16  
    
  C     6.839506  5.939825  1.611589
  C     7.259918  9.950629  2.494841
  C     5.752204  5.161745  1.087106
  C     6.010513  9.501932  1.918353
  N     7.778739  6.111711  0.696422
  N     8.244120  9.918600  1.616419
  N     5.932427  4.683252 -0.146713
  N     6.033922  9.210292  0.609264
  N     5.174683  5.836277  3.514220
  N     5.602479  9.832035  4.467802
  S     4.471350  4.897193  2.229197
  S     4.722691  9.531892  3.072596
  S     7.400872  5.274582 -0.671317
  S     7.607525  9.406088  0.136090
  S     6.734076  6.418111  3.272722
  S     7.187348 10.300971  4.190506
