16  
    
  C    12.273320  9.153610  3.411124
  C    12.103085 12.447057  3.513997
  C    11.065747  8.683447  2.735166
  C    10.942408 12.108337  2.780980
  N    13.363397  9.268622  2.676973
  N    13.176436 12.715929  2.778237
  N    11.252095  8.365628  1.474301
  N    11.135431 12.054387  1.458402
  N    10.498071  8.916255  5.314390
  N    10.281924 12.397649  5.201392
  S     9.750082  8.319339  3.887433
  S     9.526309 11.961114  3.847099
  S    12.861513  8.792394  1.084870
  S    12.726141 12.371725  1.206876
  S    12.089470  9.338049  5.144013
  S    11.846939 12.872967  5.106415
