16  
    
  C     5.830149  5.581466  2.176949
  C     5.927735  9.214665  1.707565
  C     4.574815  5.629344  1.478951
  C     4.736988  8.906977  0.976852
  N     6.916458  5.511882  1.379257
  N     7.017066  9.101289  0.948688
  N     4.644532  5.370830  0.162091
  N     4.840428  8.758526 -0.339789
  N     4.117997  5.959717  4.076755
  N     3.984260  9.209979  3.470798
  S     3.265427  5.600737  2.621384
  S     3.348371  8.773971  2.002176
  S     6.285885  5.259620 -0.141125
  S     6.506144  8.731103 -0.624344
  S     5.770073  5.815548  3.914812
  S     5.698136  9.491880  3.418835
