16

 C -3.06931123437500 1.43168837500000 5.49288982187500 
 C -2.99124023437500 4.94524937500000 5.29147582187500 
 C -4.26930323437500 0.905085375000001 4.81729882187500 
 C -4.28364723437500 4.67386937500000 4.66597182187500 
 N -2.00747823437500 1.56722437500000 4.71241682187500 
 N -2.00297123437500 4.68005137500000 4.47018382187500 
 N -4.14066523437500 0.767574375000000 3.52510082187500 
 N -4.28471723437500 4.57096337500000 3.34140582187500 
 N -4.80431923437500 1.32981237500000 7.39384482187500 
 N -4.68986723437500 5.25466637500000 7.21535382187500 
 S -5.59454623437500 0.918028375000000 5.98617882187500 
 S -5.58710523437500 4.90082337500000 5.81490682187500 
 S -2.49286823437500 1.05600537500000 3.20332882187500 
 S -2.60368223437500 4.54782637500000 2.96047582187500 
 S -3.29266123437500 1.85556637500000 7.22800082187500 
 S -3.00876023437500 5.32273037500000 6.99177282187500 
