16

 C -3.09948826562500 1.43244668125000 5.50134163750000 
 C -2.97495326562500 4.90935168125000 5.29383163750000 
 C -4.30125226562500 0.927538681250003 4.83479863750000 
 C -4.30260426562500 4.67531168125000 4.69177463750000 
 N -2.01800526562500 1.59404168125000 4.71366663750000 
 N -1.98470126562500 4.70283768125000 4.46594163750000 
 N -4.14688726562500 0.783899681250003 3.51327463750000 
 N -4.24954326562500 4.54908968125000 3.38342763750000 
 N -4.83066226562500 1.33413768125000 7.40779463750000 
 N -4.68686126562500 5.24345668125000 7.21622363750000 
 S -5.58513326562500 0.906763681250003 5.99065063750000 
 S -5.58300626562500 4.91493568125000 5.83745863750000 
 S -2.53459626562500 1.06371368125000 3.17516863750000 
 S -2.59513926562500 4.52387368125000 2.96086863750000 
 S -3.28226426562500 1.86323568125000 7.24290363750000 
 S -3.02256626562500 5.32322768125000 7.01960263750000 
