16

 C -3.44097512500000 1.23035940312500 5.29513772500000 
 C -3.11480412500000 5.09553040312500 5.32711072500000 
 C -4.60687212500000 0.721171403125004 4.66354172500000 
 C -4.37856012500000 4.65521240312501 4.75129372500000 
 N -2.32183712500000 1.37926140312501 4.54237072500000 
 N -2.12989712500000 5.06564540312500 4.42961372500000 
 N -4.34784912500000 0.350390403125005 3.40423872500000 
 N -4.35989212500000 4.31388540312501 3.50086072500000 
 N -5.14389912500000 0.964266403125005 7.19366172500000 
 N -4.83981912500000 4.84782440312501 7.21829372500000 
 S -5.97029912500000 0.626820403125005 5.79672272500000 
 S -5.73488612500000 4.77521840312501 5.80028372500000 
 S -2.77983512500000 0.872399403125006 3.08759872500000 
 S -2.80186812500000 4.58151740312501 3.02843072500000 
 S -3.54854912500000 1.44999040312501 7.00790372500000 
 S -3.38006212500000 5.46901640312501 7.00409072500000 
