16

 C -3.24495409375000 1.55277270625000 5.47266683125000 
 C -3.03934309375000 5.14562070625000 5.69471883125000 
 C -4.53469509375000 1.12925170625000 4.96307983125000 
 C -4.24638409375000 4.71937870625000 5.06124683125000 
 N -2.34261509375000 1.80771070625000 4.53058283125000 
 N -2.04670409375000 5.24145870625000 4.83843983125000 
 N -4.60630709375000 1.03950470625000 3.60463283125000 
 N -4.23305409375000 4.60325270625000 3.74679483125000 
 N -4.82072509375000 1.14343970625000 7.48709483125000 
 N -4.85621209375000 5.11998570625000 7.49729483125000 
 S -5.72414909375000 0.996936706250003 6.11786583125000 
 S -5.57410309375000 4.43912470625000 6.11826183125000 
 S -3.07531909375000 1.39636970625000 3.09528283125000 
 S -2.65448509375000 4.99866470625000 3.33568883125000 
 S -3.24019409375000 1.71246870625000 7.27377183125000 
 S -3.20951709375000 5.45979070625000 7.42896083125000 
