16

 C -3.18250145937500 1.27516022500000 5.53439708437500 
 C -3.28667245937500 5.04273022500000 5.46658108437500 
 C -4.42792645937500 1.10830522500000 4.86485708437500 
 C -4.53638445937499 4.67475422500000 4.81705308437500 
 N -2.11144845937500 1.22830922500000 4.71782308437500 
 N -2.22143845937500 4.96781822500000 4.68031408437500 
 N -4.30981545937500 0.857589224999999 3.56626508437500 
 N -4.36991745937499 4.42352022500000 3.51317708437500 
 N -5.01169545937500 1.37585422500000 7.37682908437500 
 N -4.99887845937500 5.09471522500000 7.31956908437500 
 S -5.74648345937500 1.44234122500000 5.89479108437500 
 S -5.81191745937500 4.45640122500000 5.96972208437500 
 S -2.65322245937500 0.968716225000000 3.20759508437500 
 S -2.73331545937500 4.48590022500000 3.15846308437500 
 S -3.33077045937500 1.41961622500000 7.27785908437500 
 S -3.41742945937500 5.58774022500000 7.10754808437500 
