16

 C -2.81930102187500 1.27222830625000 5.76770784062500 
 C -2.98613502187500 4.66114930625000 5.55454584062500 
 C -4.11438002187500 1.17461730625000 5.07597284062500 
 C -4.18039302187500 4.40684030625000 4.76998884062500 
 N -1.81906202187500 1.10613730625000 4.91536184062500 
 N -1.86787002187500 4.65765630625000 4.81507684062500 
 N -4.03645102187500 0.973692306250004 3.78610484062500 
 N -3.94037702187500 4.23927130625000 3.47025884062500 
 N -4.69620502187500 1.51341830625000 7.50296484062500 
 N -4.96587602187500 4.84723130625000 7.21727184062500 
 S -5.55703402187500 1.33387030625000 6.10115384062500 
 S -5.67562002187500 4.35203530625000 5.75919184062500 
 S -2.45879302187500 1.01498330625000 3.40430284062500 
 S -2.33050602187500 4.39626030625000 3.22803884062500 
 S -3.08145702187500 1.60099730625000 7.45426684062500 
 S -3.31208602187500 5.11591330625000 7.15612784062500 
