16

 C -2.81378913437500 1.27425561875000 5.31705932812500 
 C -3.19610313437500 4.93387961875000 5.40993232812500 
 C -4.07451013437500 0.766889618750003 4.84877132812500 
 C -4.43462713437500 4.38962461875000 4.83529532812500 
 N -1.93816713437500 1.50238161875000 4.35367932812500 
 N -2.22497013437500 5.20459561875000 4.53768832812500 
 N -4.13382513437500 0.708257618750002 3.50653132812500 
 N -4.30956113437500 4.33549261875000 3.50445332812500 
 N -4.49416913437500 1.21433861875000 7.32403432812500 
 N -4.81445413437500 5.04626261875000 7.40252432812500 
 S -5.35333513437500 0.833708618750002 5.91981532812500 
 S -5.60407613437500 4.23156561875000 6.12025232812500 
 S -2.70093813437500 1.08396061875000 2.92808832812500 
 S -2.84581313437500 4.91170261875000 3.03141832812500 
 S -2.92135613437500 1.77333561875000 7.07408032812500 
 S -3.24163713437500 5.46291061875000 7.07185332812500 
