16

 C -3.31208213125000 0.867978465625000 5.46338540937500 
 C -3.26284613125000 5.20177946562500 5.47407940937500 
 C -4.52928213125000 0.607632465625000 4.75397140937500 
 C -4.40231413125000 4.65295046562500 4.78119940937500 
 N -2.27226713125000 1.13375146562500 4.71756840937500 
 N -2.20477713125000 5.42593446562500 4.67634940937500 
 N -4.32598913125000 0.644817465625000 3.45208540937500 
 N -4.28678513125000 4.57809346562500 3.45359840937500 
 N -5.12194113125000 0.747053465625000 7.22027340937500 
 N -5.05163413125000 4.54000446562500 7.22695140937500 
 S -5.90967413125000 0.568520465624999 5.78750340937500 
 S -5.70656913125000 4.00733146562500 5.77764640937500 
 S -2.75579013125000 0.916107465624999 3.12525040937500 
 S -2.82022813125000 5.11333546562500 3.07900140937500 
 S -3.50532413125000 0.923266465625000 7.16875840937500 
 S -3.58754113125000 5.38495546562500 7.20099640937500 
