16

 C -3.05417975937500 0.919967634375006 5.47777253750000 
 C -3.01252275937500 4.98705763437501 5.52042053750000 
 C -4.26007475937500 0.580238634375005 4.70641353750000 
 C -4.27745975937500 4.77371063437501 4.90496653750000 
 N -1.94505375937500 1.10534363437501 4.76882653750000 
 N -1.97892275937500 4.95243363437501 4.65226453750000 
 N -4.06797075937500 0.541391634375005 3.40641653750000 
 N -4.29615875937500 4.49456263437501 3.59423653750000 
 N -4.98139075937500 0.949057634375006 7.23568953750000 
 N -4.89730875937500 5.06941763437501 7.40439353750000 
 S -5.64519875937500 0.433204634375006 5.75638053750000 
 S -5.65503475937500 4.90939863437501 5.92011553750000 
 S -2.39346875937500 0.828487634375005 3.18345853750000 
 S -2.71207475937500 4.64601263437500 3.17131553750000 
 S -3.35395075937500 1.31508863437501 7.14717353750000 
 S -3.20631975937500 5.25472563437500 7.28471453750000 
