16

 C -3.23977376562500 1.32749193750000 5.23845475625000 
 C -3.30227376562500 5.11577593750000 5.37299575625000 
 C -4.48132476562500 0.912265937500003 4.66103175625000 
 C -4.54285576562500 4.68106393750000 4.83546975625000 
 N -2.26488576562500 1.31253893750000 4.29442575625000 
 N -2.29563176562500 5.17811693750000 4.48608175625000 
 N -4.49088876562500 0.468142937500002 3.39476675625000 
 N -4.48936976562500 4.44884493750000 3.54076275625000 
 N -4.96753676562500 1.05028493750000 7.16553375625000 
 N -4.77699676562500 4.82534693750000 7.44120475625000 
 S -5.77738276562500 0.811314937500002 5.77894075625000 
 S -5.79484776562500 4.58095893750000 6.09470075625000 
 S -2.93951576562500 0.751396937500003 2.88093575625000 
 S -2.88823076562500 4.74916993750000 3.05209675625000 
 S -3.38116976562500 1.46662593750000 6.97461075625000 
 S -3.25158376562500 5.29671193750000 7.08925275625000 
