16

 C -3.15818445937500 1.60369598437500 5.55934413750000 
 C -3.16967245937500 4.99456498437500 5.51258713750000 
 C -4.47563945937500 1.34590198437500 5.00466513750000 
 C -4.38795645937500 4.60780398437500 4.86768913750000 
 N -2.15421345937500 1.77478998437500 4.66961313750000 
 N -2.15434545937500 5.25138098437500 4.68009913750000 
 N -4.45435945937500 1.31922898437500 3.64198913750000 
 N -4.29681845937500 4.53858298437500 3.54573413750000 
 N -4.68873345937500 1.62625698437500 7.65658613750000 
 N -4.91388845937500 4.62185598437500 7.39741913750000 
 S -5.70637545937500 1.45929598437500 6.35471413750000 
 S -5.70684145937500 4.51546098437500 5.92011213750000 
 S -2.94081245937500 1.56112398437500 3.17540813750000 
 S -2.80297845937500 4.99037698437500 3.18910613750000 
 S -3.06771245937500 1.66401698437500 7.34964813750000 
 S -3.23887945937500 4.84741398437500 7.25846413750000 
