16

 C -2.88419860625000 1.83185225312500 5.61722383437500 
 C -3.21178460625000 5.24508025312500 5.65248283437500 
 C -4.20104560625000 1.66127825312500 5.01750283437500 
 C -4.46901460625000 4.92715925312500 5.05153883437500 
 N -1.88624260625000 1.89918325312500 4.75316083437500 
 N -2.17069360625000 5.33617425312500 4.82793983437500 
 N -4.16004160625000 1.44129125312500 3.69554983437500 
 N -4.35544360625000 4.61084825312500 3.75890083437500 
 N -4.45559260625000 1.43919125312500 7.51110483437500 
 N -4.82993360625000 5.17439725312500 7.61231383437500 
 S -5.41681160625000 1.50001525312500 6.17654783437500 
 S -5.69209960625000 4.70117425312500 6.29874683437500 
 S -2.53396660625000 1.58253425312500 3.28943183437500 
 S -2.75149560625000 4.92688625312500 3.37063083437500 
 S -2.86113760625000 1.94851725312500 7.33500783437500 
 S -3.25633860625000 5.46779325312500 7.38505283437500 
