16

 C -3.20583492812500 1.56844750312500 5.49877463437500 
 C -2.99190792812500 5.06236350312500 5.69779363437500 
 C -4.47782392812500 1.17655050312500 4.97349163437500 
 C -4.26906692812500 4.76892150312500 5.02719763437500 
 N -2.30475392812500 1.76072350312500 4.52032763437500 
 N -1.96094792812500 5.21986550312500 4.81700263437500 
 N -4.53967392812500 0.941162503125001 3.68986463437500 
 N -4.14946692812500 4.48894950312500 3.70029163437500 
 N -4.79427992812500 1.22320150312500 7.49593463437500 
 N -4.79430592812500 5.11458650312500 7.45782963437500 
 S -5.76194792812500 0.971467503125002 6.09236163437500 
 S -5.55743092812500 4.55041250312500 6.12306063437500 
 S -3.06368992812500 1.43427550312500 3.10882163437500 
 S -2.60894992812500 4.88665950312500 3.27826863437500 
 S -3.25196892812500 1.71986650312500 7.18395263437500 
 S -3.18171092812500 5.44606750312500 7.39973363437500 
