16

 C -2.85075420625000 1.47592049062500 5.41767019062500 
 C -3.40362720625000 5.18663849062500 5.28203119062500 
 C -4.07172520625000 1.05395449062501 4.72008019062500 
 C -4.50191120625000 4.46385349062500 4.65646919062500 
 N -1.79402120625000 1.47753349062500 4.60271919062500 
 N -2.36619920625000 5.25312649062500 4.44979419062500 
 N -3.91833120625000 0.793949490625005 3.37874519062500 
 N -4.30536920625000 3.90979249062501 3.46123219062500 
 N -4.73596620625000 1.35991949062501 7.23273619062500 
 N -5.26865220625000 5.16210149062500 7.05263819062500 
 S -5.49613320625000 0.884267490625005 5.79931519062500 
 S -5.76690220625000 4.25575949062501 5.77486319062500 
 S -2.36694320625000 1.20513949062501 3.07778219062500 
 S -2.73502720625000 4.43768149062501 3.07937719062500 
 S -3.12546420625000 1.78025749062501 7.15528619062500 
 S -3.80928020625000 5.92366349062501 6.80575219062500 
