16

 C -3.00537190312500 1.61509545937500 5.36150759062500 
 C -3.48651090312500 4.97004545937500 5.20080259062500 
 C -4.16050990312500 1.03272045937500 4.71730959062500 
 C -4.63258590312500 4.33693645937500 4.54721059062500 
 N -1.90755290312500 1.73567845937500 4.62442759062500 
 N -2.45436290312500 5.14786945937500 4.40149859062500 
 N -3.88428990312500 0.674494459375000 3.43644959062500 
 N -4.32562990312500 3.88103645937500 3.32824659062500 
 N -4.76474490312500 1.34912045937500 7.27590859062500 
 N -5.44937790312500 5.07411345937500 6.93306159062500 
 S -5.40854490312500 0.757053459375000 5.88118059062500 
 S -5.92435790312500 4.09158445937500 5.65827959062500 
 S -2.24154790312500 1.12283845937500 3.12336259062500 
 S -2.84232890312500 4.42854145937500 2.96193459062500 
 S -3.31712990312500 2.13250145937500 7.06414359062500 
 S -3.86739690312500 5.63545545937500 6.75909159062500 
