16

 C -3.28350266250000 1.31559671875000 5.36855319062500 
 C -3.24450766250000 5.43822071875000 5.61740519062500 
 C -4.42554266250000 0.629810718749996 4.82654119062500 
 C -4.39447466250000 4.79265071875000 5.02491719062500 
 N -2.18175266250000 1.28901271875000 4.61716419062500 
 N -2.17050666250000 5.53745371875000 4.84183619062500 
 N -4.18356566250000 0.153455718749997 3.61383819062500 
 N -4.19367566250000 4.45922471875000 3.78198919062500 
 N -5.05215066250000 1.58116171875000 7.10699319062500 
 N -4.99660066250000 5.19837271875000 7.47260719062500 
 S -5.71025666250000 0.533991718749997 6.00281519062500 
 S -5.73605766250000 4.49683071875000 6.14200119062500 
 S -2.60356366250000 0.514975718749997 3.19689519062500 
 S -2.66882966250000 4.82444171875000 3.37438619062500 
 S -3.49639566250000 2.02080271875000 6.89547619062500 
 S -3.38642966250000 5.71433371875000 7.35604519062500 
