16

 C -3.01482521250000 1.45719572812501 5.32863236875000 
 C -3.18656621250000 5.18630172812501 5.65386536875000 
 C -4.24821021250000 1.04332172812501 4.76717036875000 
 C -4.43549721250000 4.74713372812500 4.99117936875000 
 N -2.04690521250000 1.46619872812501 4.39186636875000 
 N -2.14717421250000 5.41186272812500 4.85437236875000 
 N -4.27692021250000 0.587436728125005 3.50349936875000 
 N -4.25292721250000 4.53677572812501 3.66258936875000 
 N -4.84239221250000 1.43993872812500 7.28292936875000 
 N -4.77078521250000 4.80198972812501 7.58873536875000 
 S -5.58773921250000 1.11518272812500 5.83581136875000 
 S -5.74257921250000 4.67636772812500 6.24810736875000 
 S -2.71115021250000 0.719118728125005 3.08915136875000 
 S -2.63950521250000 4.96759972812500 3.38465336875000 
 S -3.15755921250000 1.66780972812500 7.08588736875000 
 S -3.21781121250000 5.30094072812501 7.41331436875000 
