16

 C -3.28462182812500 1.19553146562500 5.53333411250000 
 C -3.40748682812500 4.71661246562500 5.31534311250000 
 C -4.41044982812500 0.712859465625000 4.84396111250000 
 C -4.64607282812500 4.50018546562500 4.65351011250000 
 N -2.23555282812500 1.55437946562500 4.80066511250000 
 N -2.39812382812500 4.95984546562500 4.49696511250000 
 N -4.22489082812500 0.570349465624999 3.52954311250000 
 N -4.60507082812500 4.52754446562500 3.30649111250000 
 N -5.08513382812500 0.933001465625000 7.32910411250000 
 N -5.16444382812500 4.71271146562500 7.22169311250000 
 S -5.66621182812500 0.141860465624999 5.93776411250000 
 S -5.97815082812500 4.50644346562500 5.78258811250000 
 S -2.74328282812500 1.21824746562500 3.28876011250000 
 S -3.00149082812500 4.95200446562500 2.98545311250000 
 S -3.47251582812500 1.33302946562500 7.22113411250000 
 S -3.48027582812500 4.89492746562500 7.05030711250000 
