16

 C -3.12868461562500 1.45232043437500 5.47684934375000 
 C -3.27736661562500 5.11669443437500 5.41007134375000 
 C -4.31020861562500 0.845933434374999 4.80173134375000 
 C -4.53396961562500 4.70577143437500 4.84154934375000 
 N -2.06032561562500 1.57048343437500 4.69135634375000 
 N -2.29080161562500 5.08902543437500 4.52444834375000 
 N -4.01761561562500 0.418458434374998 3.55659934375000 
 N -4.46806261562500 4.27833543437500 3.58748434375000 
 N -4.97471461562500 1.43696543437500 7.27908634375000 
 N -4.97919761562500 5.27799243437500 7.34619334375000 
 S -5.66477961562500 0.708313434374999 5.95131334375000 
 S -5.80425161562500 4.63061143437500 6.01556934375000 
 S -2.51480161562500 0.960338434374998 3.19424634375000 
 S -2.92745661562500 4.60877043437500 3.05383834375000 
 S -3.39698861562500 1.88994943437500 7.08620634375000 
 S -3.37033661562500 5.64096243437500 7.06381834375000 
