16

 C -3.43250234687500 1.23262369375000 5.52263529062500 
 C -3.08258234687500 5.09142069375000 5.38233229062500 
 C -4.53796434687500 0.588310693749997 4.80107529062500 
 C -4.26424634687500 4.77336969375000 4.69156129062500 
 N -2.33524934687500 1.44474469375000 4.82870029062500 
 N -1.94883234687500 5.00790269375000 4.67862929062500 
 N -4.29292334687500 0.465741693749997 3.50392229062500 
 N -4.11321334687500 4.39498369375000 3.38752329062500 
 N -5.39341434687500 1.11976869375000 7.06280929062500 
 N -5.13161334687500 5.45482869375000 7.01929629062500 
 S -5.89606734687500 0.201444693749997 5.84257129062500 
 S -5.70564734687500 4.81898769375000 5.61943229062500 
 S -2.74236934687500 1.02609269375000 3.24286029062500 
 S -2.50324134687500 4.50443169375000 3.11648529062500 
 S -3.85087434687500 1.61541569375000 7.12632829062500 
 S -3.41321434687500 5.51539169375000 7.00749929062500 
