16

 C -3.02208806875000 1.26079369687500 5.67365427812500 
 C -2.99803006875000 4.90127969687500 5.52860027812500 
 C -4.32587406875000 0.858445696874998 5.13598527812500 
 C -4.20160006875000 4.30544569687500 4.95136627812500 
 N -2.01469706875000 1.24149369687500 4.82308227812500 
 N -2.01214006875000 4.82016069687500 4.66214727812500 
 N -4.29660406875000 0.634035696874998 3.82497027812500 
 N -4.16599106875000 4.09138669687500 3.65850127812500 
 N -4.82378406875000 1.26582169687500 7.59113627812500 
 N -4.74016706875000 4.82686369687500 7.39495927812500 
 S -5.64160406875000 0.839896696874998 6.24313327812500 
 S -5.57384206875000 4.36990369687500 5.99936527812500 
 S -2.79226806875000 0.880389696874998 3.33985827812500 
 S -2.59300606875000 4.31338269687500 3.20922427812500 
 S -3.17097706875000 1.60159669687500 7.32660227812500 
 S -3.12184006875000 5.28628869687500 7.22630427812500 
