16

 C -3.16546629687500 1.44331260937500 5.51294375937500 
 C -3.54950429687500 4.90453260937500 5.06032575937500 
 C -4.28537429687500 0.766006609375000 4.97806275937500 
 C -4.69662629687500 4.22069260937500 4.46562875937500 
 N -2.21474629687500 1.77611960937500 4.67857475937500 
 N -2.57588829687500 5.17462260937500 4.18710475937500 
 N -4.16639529687500 0.469755609375000 3.70653175937500 
 N -4.59888029687500 4.00776460937500 3.16912375937500 
 N -4.85841929687500 1.32295660937500 7.44834575937500 
 N -5.42982929687500 4.57976160937500 6.90890675937500 
 S -5.50159029687500 0.445880609375000 6.18225975937500 
 S -6.02942729687500 3.78989960937500 5.50534075937500 
 S -2.68441829687500 1.07509560937500 3.25472975937500 
 S -3.09644629687500 4.59354860937500 2.69937875937500 
 S -3.35524629687500 1.94364260937500 7.12169375937500 
 S -3.85375529687500 5.25892660937500 6.70001975937500 
