16

 C -3.03251037812500 1.65238074375000 5.61412495312500 
 C -3.05800337812500 5.36690874375000 5.59440795312500 
 C -4.11711037812500 0.972838743749998 5.00262795312500 
 C -4.27544937812500 4.89071474375000 4.96088395312500 
 N -1.98946437812500 1.80069674375000 4.82781795312500 
 N -2.04953037812500 5.38219674375000 4.74580395312500 
 N -3.97533837812500 0.749333743749998 3.71652195312500 
 N -4.21067837812500 4.57103074375000 3.66648295312500 
 N -4.70976737812500 1.49162674375000 7.46382795312500 
 N -4.85245937812500 5.36029274375000 7.40693595312500 
 S -5.43607937812500 0.776192743749998 6.10829195312500 
 S -5.64211837812500 4.90071874375000 6.02437195312500 
 S -2.37944937812500 1.27986174375000 3.32090995312500 
 S -2.61407537812500 5.00895274375000 3.21374195312500 
 S -3.20273437812500 2.11272574375000 7.23980295312500 
 S -3.24415537812500 5.74561974375000 7.28821395312500 
