16

 C -3.56635352187500 1.49781177812500 5.31743336875000 
 C -3.32406852187500 5.04079677812500 5.78992536875000 
 C -4.65931252187500 0.967950778125000 4.58246436875000 
 C -4.52715152187500 4.59758177812500 5.14676136875000 
 N -2.44566452187500 1.80675877812500 4.66278836875000 
 N -2.30144852187500 5.11133477812500 4.94569236875000 
 N -4.42151952187500 0.972568778125000 3.20864336875000 
 N -4.52433552187500 4.55700577812500 3.80492136875000 
 N -5.23290252187500 0.867926778125000 7.11626836875000 
 N -5.07406852187500 4.96436777812500 7.61740736875000 
 S -5.97596052187500 0.656251778125000 5.65854436875000 
 S -5.86426252187500 4.58230677812500 6.20645536875000 
 S -2.89923352187500 1.59786777812500 3.05752436875000 
 S -2.85023652187500 4.81443777812500 3.44364736875000 
 S -3.79053652187500 1.65796877812500 7.07296236875000 
 S -3.40873152187500 5.16277977812500 7.51873936875000 
