16

 C -3.51515845312500 1.37635793750000 5.51332791562500 
 C -3.05414545312500 5.15025293750000 5.42048891562500 
 C -4.49925745312500 0.565859937500004 4.85349591562500 
 C -4.26641145312500 4.79165393750000 4.65374491562500 
 N -2.45570445312500 1.77010093750000 4.78666591562500 
 N -1.92409645312500 5.11205793750000 4.71500091562500 
 N -4.18288645312500 0.320031937500004 3.56983791562500 
 N -4.00150145312500 4.45243893750000 3.38253591562500 
 N -5.31361845312500 0.906144937500004 7.23729291562500 
 N -5.00514945312500 5.16921293750000 7.12523091562500 
 S -5.88542445312500 0.227074937500004 5.86067791562500 
 S -5.69873345312500 4.92649093750000 5.65333991562500 
 S -2.67913145312500 0.994594937500004 3.27350391562500 
 S -2.36804745312500 4.59190393750000 3.16922291562500 
 S -3.87794645312500 1.73023693750000 7.22631691562500 
 S -3.32244345312500 5.51708093750000 7.12941691562500 
