16

 C -3.09723552812500 1.39621995625000 5.39756131875000 
 C -3.32130552812500 4.92364195625000 5.46695631875000 
 C -4.33784752812500 0.911511956250000 4.84003931875000 
 C -4.55366852812500 4.51395395625000 4.81247031875000 
 N -2.15267552812500 1.62751695625000 4.47496631875000 
 N -2.32918752812500 5.31989595625000 4.63560831875000 
 N -4.28053352812500 0.816280956250000 3.49931631875000 
 N -4.38856652812500 4.32834195625000 3.49314931875000 
 N -4.84217852812500 1.14373795625000 7.32590531875000 
 N -5.00393652812500 4.59328295625000 7.41339931875000 
 S -5.64285152812500 0.750492956250000 5.93434731875000 
 S -5.72033452812500 4.06383295625000 5.97410331875000 
 S -2.78546052812500 1.30325095625000 2.97614231875000 
 S -2.91892152812500 5.02090995625000 3.13356931875000 
 S -3.28819852812500 1.61244095625000 7.06132831875000 
 S -3.43207852812500 5.04931495625000 7.22810631875000 
