16

 C -3.10441664375000 1.25233817500000 5.54673819375000 
 C -3.36715664375000 5.02065617500000 5.46788019375000 
 C -4.39723564375000 0.961459175000003 4.95616419375000 
 C -4.52205664375000 4.51310317500000 4.80528919375000 
 N -2.08129764375000 1.34887717500000 4.66193219375000 
 N -2.38491964375000 5.35354117500000 4.67055619375000 
 N -4.34188464375000 0.800823175000003 3.60980819375000 
 N -4.47129264375000 4.40422917500000 3.46284519375000 
 N -4.87960264375000 1.18735617500000 7.38066319375000 
 N -5.08117564375000 4.62715817500000 7.37884519375000 
 S -5.74321464375000 0.904391175000002 6.02086119375000 
 S -5.85007364375000 4.14810217500000 5.90999519375000 
 S -2.81903064375000 1.13073717500000 3.14227919375000 
 S -2.96365064375000 4.99073117500000 3.10349119375000 
 S -3.30174564375000 1.62127617500000 7.25581719375000 
 S -3.53358264375000 5.17184317500000 7.24898519375000 
