16

 C -3.24533174062500 0.886216156249999 5.45990327187500 
 C -3.35187574062500 5.04224415625000 5.51909327187500 
 C -4.52872174062500 0.679549156249998 4.79885927187500 
 C -4.52819274062500 4.55980415625000 4.83363427187500 
 N -2.23217974062500 1.07068515625000 4.63653927187500 
 N -2.28728774062500 5.34856615625000 4.79942627187500 
 N -4.38642174062500 0.654257156249999 3.49428027187500 
 N -4.31716574062500 4.45200915625000 3.50569527187500 
 N -5.05456674062500 0.659028156249999 7.25981627187500 
 N -4.98884874062500 4.48784315625000 7.41569827187500 
 S -5.88992274062500 0.492584156249999 5.84204127187500 
 S -5.84767274062500 4.34568515625000 6.00651727187500 
 S -2.85737574062500 0.984537156249998 3.06870827187500 
 S -2.77925474062500 4.94509815625000 3.24195727187500 
 S -3.43282474062500 0.808943156249999 7.16918027187500 
 S -3.41480674062500 5.01959815625000 7.25274027187500 
