16

 C -3.06439263125000 1.58440283750000 5.47150162187500 
 C -3.07061363125000 5.31895583750000 5.49811162187500 
 C -4.29896263125000 1.20022583750000 4.79672262187500 
 C -4.30635263125000 5.02609883750000 4.81260562187500 
 N -2.02043263125000 1.82400083750000 4.67540062187500 
 N -2.03081863125000 5.34981183750000 4.68292162187500 
 N -4.12244063125000 0.994260837499999 3.49491462187500 
 N -4.16861163125000 4.82292783750000 3.48178562187500 
 N -4.80585763125000 1.38967983750000 7.37202862187500 
 N -4.77232463125000 5.05735183750000 7.38113162187500 
 S -5.59002063125000 1.01141883750000 5.93914562187500 
 S -5.61259263125000 4.88707683750000 5.96284762187500 
 S -2.51429163125000 1.37418683750000 3.18342962187500 
 S -2.58161363125000 5.11316383750000 3.16972462187500 
 S -3.18141063125000 1.75278183750000 7.21721862187500 
 S -3.13095263125000 5.47928483750000 7.23413562187500 
