16

 C -2.88987631250000 1.57896093750000 5.78002778125000 
 C -3.29730631250000 5.34366993750000 5.50544278125000 
 C -4.17398131250000 1.45506293750000 5.12684478125000 
 C -4.55016031250000 4.88964893750000 4.90802678125000 
 N -1.82662731250000 1.72324493750000 4.97193178125000 
 N -2.33566531250000 5.62595393750000 4.59832578125000 
 N -4.05355631250000 1.33279093750000 3.80934078125000 
 N -4.57740831250000 4.83188993750000 3.56424378125000 
 N -4.61084731250000 1.49649993749999 7.70254478125000 
 N -5.07190931250000 5.06081893750000 7.40151278125000 
 S -5.47885631250000 1.43043993750000 6.27998978125000 
 S -5.82466831250000 4.62774893750000 5.99843078125000 
 S -2.49909731250000 1.59722493750000 3.40397378125000 
 S -3.05874731250000 5.26483893750000 3.11341578125000 
 S -2.91340531250000 1.58534393749999 7.55576478125000 
 S -3.45820931250000 5.59362293750000 7.23307978125000 
