16

 C -3.21520925937500 1.31816027500000 5.68430047187500 
 C -3.52769925937500 5.34826127500000 5.36861647187500 
 C -4.28955425937500 0.627670275000001 5.04531047187500 
 C -4.52349025937500 4.42989727500000 4.81497347187500 
 N -2.23002825937500 1.61092827500000 4.83300147187500 
 N -2.39830125937500 5.56098527500000 4.62922447187500 
 N -4.20106225937500 0.483741275000001 3.71281647187500 
 N -4.26740725937500 4.17004127500000 3.52065647187500 
 N -4.83111325937500 0.812391275000001 7.51523247187500 
 N -5.30411825937500 4.98880427500000 7.26664947187500 
 S -5.59071825937500 0.324839275000001 6.12786747187500 
 S -5.80791725937500 4.14198927500000 5.88244547187500 
 S -2.64706425937500 1.13182427500000 3.35616347187500 
 S -2.80637025937500 4.89693227500000 3.12650447187500 
 S -3.34975125937500 1.66254627500000 7.40293447187500 
 S -3.81875825937500 5.73110627500000 7.05774447187500 
