16

 C -3.37262405937500 1.18764264062500 5.51429487187500 
 C -3.19410405937500 4.96313264062500 5.06219087187500 
 C -4.55863305937500 0.806131640625002 4.85800187187500 
 C -4.39391805937500 4.38478664062500 4.47514987187500 
 N -2.33341005937500 1.46177864062500 4.73806387187500 
 N -2.17772505937500 5.21849564062500 4.26554087187500 
 N -4.40991505937500 0.775038640625001 3.52871487187500 
 N -4.21754805937500 4.10136864062500 3.17057387187500 
 N -5.16278905937500 0.998955640625002 7.31185987187500 
 N -5.00522805937500 4.89242364062500 6.93102587187500 
 S -5.92925305937500 0.526267640625002 5.90212387187500 
 S -5.73207105937500 4.29542964062500 5.57453987187500 
 S -2.88806205937500 1.19269464062500 3.16411287187500 
 S -2.74513305937500 4.67518264062500 2.76277687187500 
 S -3.54328105937500 1.47386664062500 7.17440387187500 
 S -3.35464705937500 5.22800164062500 6.76774487187500 
