16

 C -3.48835552812500 1.26688216875001 5.78910308437500 
 C -3.27589652812500 5.15362516875001 5.34723908437500 
 C -4.56205352812499 0.833849168750007 4.95159808437500 
 C -4.52107652812500 4.67663916875001 4.78450308437500 
 N -2.36597752812500 1.65111216875001 5.17140008437500 
 N -2.29047652812500 5.45124716875001 4.50258508437500 
 N -4.23361252812500 0.705282168750006 3.65546908437500 
 N -4.39069552812500 4.45305116875001 3.49509708437500 
 N -5.47976952812500 0.920359168750006 7.38979908437500 
 N -4.93632252812499 4.84727616875001 7.33297508437500 
 S -6.04166152812500 0.586639168750006 5.84677208437500 
 S -5.81483452812500 4.43985016875001 6.00671708437500 
 S -2.61588252812500 1.15416016875001 3.60107208437500 
 S -2.87348552812500 4.86753216875001 3.01797508437500 
 S -3.91770752812500 1.52502616875001 7.44725108437500 
 S -3.34494852812500 5.32075616875001 7.06268208437500 
