16

 C -3.32585598125000 1.48218605625000 5.54918670000000 
 C -3.41272198125000 5.16351605625000 5.20553770000000 
 C -4.53382298125000 0.853251056250001 4.96647670000000 
 C -4.59041798125000 4.62932805625000 4.52166170000000 
 N -2.35213998125000 1.57453605625000 4.65680770000000 
 N -2.41486798125000 5.36851805625000 4.36798570000000 
 N -4.46778898125000 0.565669056250001 3.69264570000000 
 N -4.42023198125000 4.31749805625000 3.23048770000000 
 N -5.01115798125000 0.962066056250001 7.46413170000000 
 N -5.09326898125000 4.64803705625000 7.05087470000000 
 S -5.81016598125000 0.699810056250001 6.05675170000000 
 S -5.81898498125000 4.10502605625000 5.66332970000000 
 S -2.96085398125000 1.06504505625000 3.19160770000000 
 S -2.87117798125000 4.77996805625000 2.84311770000000 
 S -3.49656798125000 1.63396805625000 7.23041970000000 
 S -3.56815998125000 5.19123205625000 6.94326870000000 
