16

 C -3.30923387187500 1.23604306250001 5.53685387812500 
 C -3.26622687187500 5.06507406250001 5.19782887812500 
 C -4.58356587187500 1.09700406250001 4.83349387812500 
 C -4.46440587187500 4.48989806250001 4.59801187812500 
 N -2.23768587187500 1.25153306250001 4.74996887812500 
 N -2.22592887187500 5.18642006250001 4.36381787812500 
 N -4.43790687187500 0.988414062500006 3.51872187812500 
 N -4.32553987187500 4.10960606250001 3.34579787812500 
 N -5.17852587187500 1.19511806250001 7.35878887812500 
 N -4.99798187187500 4.89038106250000 7.09713987812500 
 S -5.88655987187500 0.871258062500005 5.90620587812500 
 S -5.84622887187500 4.49704906250001 5.73258287812500 
 S -2.84642787187500 1.04317306250001 3.17559887812500 
 S -2.75128287187500 4.49320806250001 2.92312487812500 
 S -3.53188687187500 1.43362406250001 7.29405687812500 
 S -3.37770587187500 5.39382506250000 6.93310887812500 
