16

 C -3.15049452187500 1.31889642812500 5.30847529375000 
 C -2.90247752187500 4.94678042812500 5.64100429375000 
 C -4.32414752187500 0.743146428125002 4.58775829375000 
 C -4.17311552187500 4.52772042812500 5.07734929375000 
 N -2.12552052187500 1.64654742812500 4.51631429375000 
 N -2.00753952187500 5.23806142812500 4.72104229375000 
 N -4.07530052187500 0.550896428125002 3.28572929375000 
 N -4.16284752187500 4.27213642812500 3.76832029375000 
 N -4.84095052187500 0.768576428125002 7.08891329375000 
 N -4.55185852187500 4.67254542812500 7.65778129375000 
 S -5.61095452187500 0.303184428125002 5.67130029375000 
 S -5.42737352187500 4.48377042812500 6.24311129375000 
 S -2.60830052187500 1.25645242812500 3.00224229375000 
 S -2.65894252187500 4.78532042812500 3.25521929375000 
 S -3.32762452187500 1.44736442812500 6.95289429375000 
 S -2.91979952187500 5.09898042812500 7.40722229375000 
