16

 C -3.22096922187500 1.41742551250000 5.66946166875000 
 C -3.34455122187500 5.13579551250000 5.39868366875000 
 C -4.36535922187500 0.829672512499996 4.97305766875000 
 C -4.56070422187500 4.68811851250000 4.77428466875000 
 N -2.19171022187500 1.68139651250000 4.87304366875000 
 N -2.29348022187500 5.39531451250000 4.59196966875000 
 N -4.19591122187500 0.771027512499995 3.65889466875000 
 N -4.45199822187500 4.78312251249999 3.45145766875000 
 N -5.08084822187500 1.18114851250000 7.36716166875000 
 N -5.08351022187500 4.88020551249999 7.29260666875000 
 S -5.72579522187500 0.589924512499995 5.94991666875000 
 S -5.89504522187500 4.40538151249999 5.89425966875000 
 S -2.64025822187500 1.17069751249999 3.39714966875000 
 S -2.86430022187500 5.17178751249999 3.07909866875000 
 S -3.50235822187500 1.59806451250000 7.37046866875000 
 S -3.49690922187500 5.27527851249999 7.09552466875000 
