16

 C -2.87473966562500 1.57139839687500 5.46091495312500 
 C -3.47218966562500 5.12798039687500 5.17599495312500 
 C -4.01971666562500 0.986910396874999 4.72513895312500 
 C -4.56725166562500 4.29991239687500 4.65267495312500 
 N -1.82039866562500 1.65925339687500 4.65234995312500 
 N -2.36656266562500 5.13450539687500 4.46452195312500 
 N -3.91768466562500 0.881979396874999 3.41991895312500 
 N -4.37739366562500 3.96956039687500 3.37886395312500 
 N -4.79323366562500 1.43025539687500 7.19313595312500 
 N -5.33744366562500 5.12027239687500 6.91550295312500 
 S -5.38702266562500 0.793285396874999 5.78487795312500 
 S -5.95290066562500 4.09042739687500 5.77466395312500 
 S -2.34152666562500 1.11627739687500 3.14526895312500 
 S -2.76130966562500 4.40356539687500 3.00724995312500 
 S -3.23931466562500 2.01543639687500 7.05616295312500 
 S -3.85646866562500 5.74547939687500 6.71570795312500 
