16

 C -3.09662267499999 1.20352789687500 5.69921987812500 
 C -3.02573867500000 4.77531989687500 5.49615487812500 
 C -4.38793667500000 0.838582896875000 5.09196387812500 
 C -4.23425767499999 4.32973089687500 4.85528287812500 
 N -2.07635067500000 1.23843989687500 4.81401987812500 
 N -1.99432567499999 4.79311889687500 4.66203487812500 
 N -4.26685267499999 0.540614896875000 3.78454387812500 
 N -4.10933567500000 4.12946989687500 3.56931287812500 
 N -4.79085367499999 1.03533889687500 7.63418087812500 
 N -4.92525867499999 4.86487489687500 7.22063487812500 
 S -5.66312567499999 0.745298896875000 6.31111787812500 
 S -5.55675967500000 4.05683689687500 5.88562487812500 
 S -2.66515367499999 0.816842896874999 3.36680087812500 
 S -2.53409867499999 4.33841589687500 3.16891287812500 
 S -3.27371167500000 1.61438689687500 7.36858287812500 
 S -3.32250167499999 5.33242189687500 7.16433387812500 
