16

 C -3.31157913437501 1.23608647500000 5.53906917187500 
 C -3.26050113437501 5.07012447500000 5.20455817187500 
 C -4.58493113437501 1.10135847500000 4.83977317187500 
 C -4.46606113437501 4.49938847500000 4.60117817187500 
 N -2.24233013437501 1.25240247500000 4.75347317187500 
 N -2.22336413437501 5.18331147500000 4.37438117187500 
 N -4.42979113437501 0.993952474999998 3.52494917187500 
 N -4.32475413437501 4.11459247500000 3.35269917187500 
 N -5.17566213437501 1.19992847500000 7.36144417187500 
 N -5.00190413437501 4.88984547500000 7.10138817187500 
 S -5.88658613437501 0.882136474999998 5.90454617187500 
 S -5.84747613437501 4.49810447500000 5.73611817187500 
 S -2.84286613437501 1.03631947500000 3.17366417187500 
 S -2.75704413437501 4.48707447500000 2.92501917187500 
 S -3.52828113437501 1.43183247500000 7.29189117187500 
 S -3.37867713437501 5.39944647500000 6.93742217187500 
