16

 C -3.24561549375000 1.53779345312500 5.56233012812500 
 C -3.00565849375000 5.33523945312500 5.60575012812500 
 C -4.38286149375000 1.28175345312500 4.77463212812500 
 C -4.26948249375000 5.06676845312500 4.98912112812500 
 N -2.13713949375000 1.83487445312500 4.86429212812500 
 N -2.00983149375000 5.44833345312500 4.71310912812500 
 N -4.20132649375000 1.19069145312500 3.45990412812500 
 N -4.21028849375000 4.80053145312500 3.69157712812500 
 N -5.01151649375000 0.665120453125000 7.19884512812500 
 N -4.79911449375000 5.06540545312500 7.50709912812500 
 S -5.69330249375000 0.738116453125000 5.74345812812500 
 S -5.67518149375000 4.93418745312500 6.04686312812500 
 S -2.62771449375000 1.71616045312500 3.26953612812500 
 S -2.65491549375000 4.99589745312500 3.20281312812500 
 S -3.50585149375000 1.34741345312500 7.34181712812500 
 S -3.13786149375000 5.53438245312500 7.34752112812500 
