16

 C -3.14133577812500 1.66740674375000 5.41691543125000 
 C -3.67701977812500 5.04347474375000 5.01651943125000 
 C -4.12668577812500 0.722379743749999 4.94631343125000 
 C -4.68814877812500 4.22636174375000 4.43559143125000 
 N -2.17995677812500 1.96028974375000 4.52806843125000 
 N -2.60420777812500 5.23095674375000 4.25833143125000 
 N -3.91043377812500 0.316944743750000 3.64965343125000 
 N -4.49657077812500 3.91744174375000 3.13953343125000 
 N -4.82523377812500 1.31792774375000 7.39658543125000 
 N -5.44852077812500 4.82441574375000 6.84746043125000 
 S -5.47386277812500 0.585556743750000 6.04697743125000 
 S -5.99959977812500 3.96379074375000 5.54796543125000 
 S -2.55265877812500 1.06994274375000 3.15995243125000 
 S -2.94574877812500 4.56936674375000 2.79722243125000 
 S -3.40267877812500 2.16221474375000 7.15712443125000 
 S -3.83843677812500 5.22383974375000 6.73939343125000 
