16

 C -3.11535409375000 1.40248108125000 5.56039628125000 
 C -3.23442209375000 5.07784208125000 5.15364628125000 
 C -4.40532109375000 0.904175081250000 4.97230028125000 
 C -4.35517109375000 4.28423608125000 4.65314928125000 
 N -2.11545509375000 1.48189908125000 4.67489428125000 
 N -2.17559009375000 5.09700108125000 4.34569828125000 
 N -4.32910509375000 0.705457081250001 3.65847228125000 
 N -4.17740109375000 3.91621608125000 3.39066028125000 
 N -4.76523609375000 1.27470608125000 7.48620828125000 
 N -4.89175009375000 5.04616008125000 7.06161428125000 
 S -5.64700809375000 0.872027081250001 6.16596128125000 
 S -5.64658209375000 4.22868308125000 5.77212128125000 
 S -2.75336609375000 0.974636081250000 3.22440528125000 
 S -2.62811309375000 4.36943308125000 2.96073628125000 
 S -3.24547909375000 1.84700808125000 7.23832428125000 
 S -3.32658909375000 5.52884108125000 6.83006028125000 
