16

 C -3.25453230000000 1.04322385000000 5.54481262187500 
 C -3.20148830000000 5.10003885000000 5.74119462187500 
 C -4.46930930000000 0.789869850000000 4.84022062187500 
 C -4.36749930000000 4.54902085000000 5.07585762187500 
 N -2.23653930000000 1.22629485000000 4.71300462187500 
 N -2.22500830000000 5.42612385000000 4.88053462187500 
 N -4.42476430000000 0.794165850000000 3.51241162187500 
 N -4.23763630000000 4.28937785000000 3.77911562187500 
 N -5.03012630000000 0.523562850000000 7.29224362187500 
 N -4.84751530000000 4.44190385000000 7.56695062187500 
 S -5.82836830000000 0.487871850000000 5.83058562187500 
 S -5.74157430000000 4.17643085000000 6.15865062187500 
 S -2.81660930000000 0.977644850000000 3.17528362187500 
 S -2.77036030000000 4.96575385000000 3.37424062187500 
 S -3.38661530000000 0.932844850000000 7.31642962187500 
 S -3.43995230000000 5.30900085000000 7.45032662187500 
