16

 C -2.74405013437500 1.22369885625000 5.42331053125000 
 C -2.99512613437500 5.17115685625000 5.66243153125000 
 C -4.05025713437500 0.915038856250003 4.85387953125000 
 C -4.13654313437500 4.55713185625000 5.02750353125000 
 N -1.78075013437500 1.42873785625000 4.54628753125000 
 N -1.95571113437500 5.38766885625000 4.86188753125000 
 N -4.08019813437500 1.00111185625000 3.53804253125000 
 N -4.07076813437500 4.49321185625000 3.69653753125000 
 N -4.58704913437500 1.28893785625000 7.37765753125000 
 N -4.85921413437500 4.91377785625000 7.45318353125000 
 S -5.40252313437500 0.976944856250003 5.96906353125000 
 S -5.46993413437500 4.26263085625000 6.02290953125000 
 S -2.50982613437500 1.24723585625000 3.00085453125000 
 S -2.49024313437500 4.98192285625000 3.33694253125000 
 S -2.90847313437500 1.58654185625000 7.15744153125000 
 S -3.28311613437500 5.40598985625000 7.42354953125000 
