16

 C -3.13068484687500 1.48387915000000 5.45195640937500 
 C -3.23593484687500 5.22743115000000 5.35246940937500 
 C -4.31655584687500 0.734071150000002 4.89374340937500 
 C -4.49389484687500 4.69631715000000 4.89983840937500 
 N -2.13822184687500 1.59189015000000 4.54336340937500 
 N -2.24030884687500 5.18449815000000 4.45364140937500 
 N -4.16124984687500 0.431536150000002 3.59037940937500 
 N -4.49811584687500 4.33342915000000 3.63146440937500 
 N -4.98809284687500 1.42205715000000 7.32010440937500 
 N -4.97358384687500 5.17477115000000 7.31437740937500 
 S -5.60591684687500 0.568514150000002 6.03905740937500 
 S -5.82709684687500 4.73239815000000 6.00131240937500 
 S -2.58011384687500 0.825494150000002 3.14310140937500 
 S -2.97853384687500 4.56349715000000 3.07628240937500 
 S -3.39663684687500 1.90837615000000 7.12976540937500 
 S -3.40142584687500 5.57708815000000 7.06811140937500 
