16

 C -3.10705915312500 1.57913689687500 5.46713327500000 
 C -3.21822515312500 5.27311589687500 5.95100327500000 
 C -4.30181915312500 1.06762089687500 4.78975427500000 
 C -4.44467115312500 5.00311989687500 5.33414227500000 
 N -2.18486115312500 1.91422789687500 4.55045527500000 
 N -2.14776115312500 5.34053489687500 5.13305027500000 
 N -4.24101015312500 0.921330896874998 3.47265727500000 
 N -4.34143015312500 4.88493089687500 3.97366727500000 
 N -4.92551115312500 0.988784896874997 7.25398127500000 
 N -4.88570415312500 5.14048889687500 7.90036427500000 
 S -5.67390415312500 0.671790896874997 5.78092027500000 
 S -5.78507215312500 4.94520289687500 6.47008127500000 
 S -2.72556515312500 1.41037789687500 3.08252327500000 
 S -2.66794315312500 5.04643889687500 3.65143027500000 
 S -3.35109415312500 1.41959689687500 7.22354827500000 
 S -3.22255215312500 5.39175589687500 7.66924427500000 
