16

 C -3.19877722187501 1.44743665312500 5.33531877500000 
 C -2.95734522187501 5.29578065312500 5.71427277500000 
 C -4.35246522187501 0.868102653124996 4.70308177500000 
 C -4.27794822187501 5.07475165312500 5.13291977500000 
 N -2.17322822187501 1.68409965312500 4.58026477500000 
 N -2.01097922187501 5.33350765312500 4.78559277500000 
 N -4.21383422187501 0.843048653124997 3.41026077500000 
 N -4.28627322187501 4.90180365312500 3.81457577500000 
 N -4.91167822187501 0.771304653124997 7.25204777500000 
 N -4.51478522187501 4.90799865312500 7.61450877500000 
 S -5.55612222187501 0.258491653124996 5.79427777500000 
 S -5.51224922187501 4.82133465312500 6.33022677500000 
 S -2.69703822187501 1.42958865312500 3.00857277500000 
 S -2.76639022187501 5.12423065312500 3.27694677500000 
 S -3.42074822187501 1.59534065312500 7.07855077500000 
 S -2.99482022187501 5.47517865312500 7.47862877500000 
