16

 C -3.18107374062500 1.25025270625000 5.30995217500000 
 C -2.83493974062500 5.30564070625000 5.61732417500000 
 C -4.37487874062500 0.719727706249998 4.63335117500000 
 C -4.16313774062500 5.02359670625000 5.12079017500000 
 N -2.14447274062500 1.63454070625000 4.64467717500000 
 N -1.92417174062500 5.31240870625000 4.62602417500000 
 N -4.13709574062500 0.711943706249997 3.33577817500000 
 N -4.32133374062500 4.91483270625000 3.78691617500000 
 N -4.82972674062500 0.822896706249997 7.18874217500000 
 N -4.64968974062500 4.89601170625000 7.63027917500000 
 S -5.64921174062500 0.282649706249997 5.82387017500000 
 S -5.50600874062500 4.90154470625000 6.16388217500000 
 S -2.58699074062500 1.42698170625000 3.09652317500000 
 S -2.80072874062500 5.02782970625000 3.21367317500000 
 S -3.38191774062500 1.53752770625000 7.02775617500000 
 S -2.98941874062500 5.44252370625000 7.38533617500000 
