16

 C -3.13567321250000 1.49051242812500 5.73582778750000 
 C -3.01601221250000 4.63967142812500 5.47102278750000 
 C -4.33243321250000 1.16605442812500 5.12366678750000 
 C -4.26119921250000 4.25109642812500 4.86579078750000 
 N -2.12722421250000 1.66753342812500 4.90941878750000 
 N -1.98715121250000 4.76700442812500 4.63469378750000 
 N -4.20013521250000 0.888621428124998 3.83657978750000 
 N -4.15907421250000 3.98538042812500 3.57421978750000 
 N -4.76966421250000 1.46238342812500 7.57675278750000 
 N -4.89498321250000 4.49504842812500 7.36615078750000 
 S -5.67673221250000 1.15829442812500 6.20539278750000 
 S -5.63997621250000 4.16226442812500 5.91449478750000 
 S -2.61134321250000 1.20272042812500 3.36828378750000 
 S -2.63352721250000 4.33876242812500 3.08604378750000 
 S -3.16992821250000 1.71907442812500 7.42463278750000 
 S -3.26190321250000 4.62081642812500 7.25689378750000 
