16

 C -3.22055213437500 1.41485103750000 5.37010493437500 
 C -3.28617113437500 5.14843003750000 5.39254293437500 
 C -4.30941113437500 0.686432037500005 4.90665493437500 
 C -4.52923313437500 4.63112403750000 4.85892793437500 
 N -2.19215713437500 1.50349003750000 4.51311993437500 
 N -2.27560713437500 5.12433303750000 4.53705393437500 
 N -4.20511313437500 0.271770037500004 3.63837993437500 
 N -4.45605713437500 4.29308803750000 3.57089293437500 
 N -4.88108213437500 1.28196203750000 7.33756993437500 
 N -4.84065013437500 4.92886203750000 7.40684793437500 
 S -5.55611213437500 0.390194037500004 6.10736493437500 
 S -5.79377813437500 4.75341903750000 6.10697793437500 
 S -2.73677213437500 0.860721037500005 3.11765093437500 
 S -2.90991613437500 4.67987603750001 3.09946093437500 
 S -3.36169013437500 1.91854503750000 7.01791093437500 
 S -3.27549813437500 5.41333203750000 7.09589893437500 
