16

 C -3.21201504375000 1.18336328437500 5.51347627500000 
 C -2.92989904375000 5.16087928437500 5.45793427500000 
 C -4.48066804375000 0.730583284375002 5.05363327500000 
 C -4.13288304375000 4.90030628437500 4.71165727500000 
 N -2.28536504375000 1.33575028437500 4.53633427500000 
 N -1.83570704375000 5.22333228437500 4.69896227500000 
 N -4.58893504375000 0.591303284375002 3.72033427500000 
 N -3.98864104375000 4.86500428437500 3.40251227500000 
 N -4.83392804375000 1.05771128437500 7.61136227500000 
 N -4.81202004375000 4.84367328437500 7.23903327500000 
 S -5.74041104375000 0.751879284375002 6.22977127500000 
 S -5.52089904375000 4.62794028437500 5.69659027500000 
 S -3.08385904375000 0.936110284375002 3.10099027500000 
 S -2.35474704375000 5.07690028437500 3.11458227500000 
 S -3.25385104375000 1.32434428437500 7.25768827500000 
 S -3.14818904375000 5.09791928437500 7.23702627500000 
