16

 C -2.99245368125000 1.24088884375000 5.51834360625000 
 C -2.94494968125000 5.04524684375000 5.68893660625000 
 C -4.05042868125000 0.670370843750002 4.85788160625000 
 C -4.12499468125000 4.49358884375000 5.08275860625000 
 N -1.90557568125000 1.30258284375000 4.79368160625000 
 N -1.95653468125000 5.24764184375000 4.82609960625000 
 N -3.86660868125000 0.414866843750002 3.58980460625000 
 N -4.03049368125000 4.34316384375000 3.76310560625000 
 N -4.88838668125000 1.25913584375000 7.20885260625000 
 N -4.65665968125000 4.85751284375000 7.64093160625000 
 S -5.48596768125000 0.568575843750002 5.80391760625000 
 S -5.43545468125000 4.29134184375000 6.29554060625000 
 S -2.29950568125000 0.843005843750002 3.25562260625000 
 S -2.54193068125000 4.84669084375000 3.29223260625000 
 S -3.23709468125000 1.63239384375000 7.14995660625000 
 S -3.08862068125000 5.39139084375000 7.40125860625000 
