16

 C -2.98390754375000 1.78103614062500 5.66681417187500 
 C -3.15428654375000 5.43453914062500 5.61999417187500 
 C -4.04512354375000 0.994621140625002 5.13354217187500 
 C -4.33841954375000 4.86563514062500 5.03020117187500 
 N -2.00443154375000 1.95823414062500 4.77672017187500 
 N -2.14967654375000 5.61000314062500 4.76075817187500 
 N -3.93742054375000 0.650310140625002 3.88202717187500 
 N -4.20524154375000 4.53983214062500 3.74720717187500 
 N -4.75256554375000 1.37304614062500 7.48726617187500 
 N -4.85881854375000 5.31014914062500 7.51646217187500 
 S -5.41686354375000 0.783416140625002 6.06781417187500 
 S -5.66148454375000 4.96033014062500 6.11989617187500 
 S -2.38966654375000 1.09231214062500 3.43385117187500 
 S -2.60156554375000 4.94640914062500 3.34040717187500 
 S -3.26457154375000 2.10778414062500 7.34670717187500 
 S -3.23970054375000 5.62166814062500 7.39253017187500 
