16

 C -3.14837738125000 1.25038726875000 5.74779501250000 
 C -3.12426238125000 5.22289126875000 5.59024401250000 
 C -4.46865538125000 0.940567268750002 5.13106101250000 
 C -4.31563738125000 4.61240726875000 5.00831101250000 
 N -2.19848338125000 1.19060426875000 4.80885601250000 
 N -2.12555338125000 5.44168926875000 4.70210301250000 
 N -4.40858438125000 0.641660268750003 3.82923901250000 
 N -4.29271638125000 4.55359526875000 3.65928001250000 
 N -4.94320038125000 1.50315826875000 7.63940201250000 
 N -4.94274438125000 5.06478326875000 7.44209501250000 
 S -5.78435138125000 1.16744026875000 6.27880101250000 
 S -5.70486838125000 4.54257626875000 6.05580701250000 
 S -2.83218838125000 0.923728268750002 3.33641801250000 
 S -2.81090138125000 5.07030126875000 3.19572401250000 
 S -3.29298838125000 1.54090226875000 7.49858201250000 
 S -3.36086138125000 5.43451426875000 7.28202901250000 
