16

 C -3.10743963437500 1.60864382812500 5.43614314687500 
 C -3.06760263437500 5.25603082812500 5.50661314687500 
 C -4.36029163437500 1.32486682812500 4.79752614687500 
 C -4.30249863437500 4.92849582812500 4.82070614687500 
 N -2.07963163437500 1.69621282812500 4.59209714687500 
 N -2.04104563437500 5.41697182812500 4.68834914687500 
 N -4.31156563437500 1.30209382812500 3.48011114687500 
 N -4.23179763437500 4.86171482812500 3.48809714687500 
 N -4.93195363437500 1.32825282812500 7.27733214687500 
 N -4.72237963437500 4.93919682812500 7.41909314687500 
 S -5.68625163437500 1.26926482812500 5.84610014687500 
 S -5.58503063437500 4.75334582812500 5.96486514687500 
 S -2.69179163437500 1.54401082812500 3.00529014687500 
 S -2.62388263437500 5.27671482812500 3.13666414687500 
 S -3.28663863437500 1.58023282812500 7.21160314687500 
 S -3.04760263437500 5.09943182812500 7.21851414687500 
