16

 C -3.09350912812500 1.51936389062500 5.72230903437500 
 C -3.20500912812500 4.88907489062500 5.61501603437500 
 C -4.24937712812500 1.18734889062500 4.94436303437500 
 C -4.35273712812500 4.46552989062500 4.83199703437500 
 N -1.98776412812500 1.74336789062500 4.98369103437500 
 N -2.10111412812500 4.95892789062500 4.89249203437500 
 N -3.94634412812500 1.01837989062500 3.61195203437500 
 N -4.03558612812500 4.14990389062500 3.55209603437500 
 N -4.94021612812500 1.08480589062500 7.32821303437500 
 N -5.31769712812500 4.61183489062500 7.23263503437500 
 S -5.65256612812500 1.06539589062500 5.87846603437500 
 S -5.86584512812500 4.36672689062500 5.72791803437500 
 S -2.36029012812500 1.28193189062500 3.47077003437500 
 S -2.45640612812500 4.44557789062500 3.34283703437500 
 S -3.40555012812500 1.61247189062500 7.44178303437500 
 S -3.65676712812500 5.01033289062500 7.28271203437500 
