16

 C -3.07153292500000 1.38351163750000 5.32645038125000 
 C -3.10718592500000 5.27917663750000 6.02274438125000 
 C -4.24369092500000 0.876286637500001 4.67573438125000 
 C -4.35988192500000 4.94708363750000 5.38276438125000 
 N -2.04392192500000 1.77020363750000 4.55997138125000 
 N -2.07314192500000 5.33418463750000 5.16326038125000 
 N -4.08147292500000 0.839487637500000 3.33579038125000 
 N -4.28172092500000 4.82547663750000 4.04142038125000 
 N -4.79720192500000 1.13073963750000 7.21718838125000 
 N -5.07783192500000 5.06985863750000 7.79076738125000 
 S -5.59537992500000 0.667956637500001 5.84241238125000 
 S -5.81588992500000 4.85789863750000 6.29905538125000 
 S -2.49591392500000 1.39191263750000 3.05425238125000 
 S -2.67161492500000 5.12047063750000 3.65185038125000 
 S -3.24535692500000 1.59765063750000 7.06060438125000 
 S -3.42125592500000 5.51402963750000 7.75943538125000 
