16

 C -2.94761707812500 1.39799445937500 5.53362131875000 
 C -3.10222607812500 5.27567745937500 5.19160631875000 
 C -4.17250407812500 0.967196459374998 4.85531131875000 
 C -4.31931307812500 4.68706145937500 4.60921331875000 
 N -1.86490207812500 1.30675745937500 4.80591331875000 
 N -2.08834107812500 5.38856545937500 4.33850331875000 
 N -3.94414007812500 0.667048459374998 3.59581231875000 
 N -4.26733407812500 4.55014545937500 3.29955031875000 
 N -4.89686507812500 1.42083145937500 7.20120131875000 
 N -4.75153607812500 4.85508145937500 7.15167631875000 
 S -5.61741307812500 0.876776459374998 5.82830731875000 
 S -5.68382507812500 4.78934945937500 5.75418831875000 
 S -2.29413307812500 0.990786459374998 3.29596231875000 
 S -2.73441607812500 4.95634145937500 2.85476331875000 
 S -3.23014607812500 1.58750245937500 7.22646331875000 
 S -3.15808107812500 5.37710345937500 6.84383231875000 
