16

 C -2.94637575625000 1.20813055937499 5.26012433125000 
 C -2.93730275625000 5.11128455937499 5.58247733125000 
 C -4.08636375625000 0.709883559374994 4.60016433125000 
 C -4.18077675625000 4.52564455937499 5.15627133125000 
 N -1.94111775625000 1.67521555937499 4.48186433125000 
 N -1.98193675625000 5.36449155937499 4.70028233125000 
 N -4.05171275625000 0.662557559374994 3.26990533125000 
 N -4.16601775625000 4.22343555937499 3.85135533125000 
 N -4.74173675625000 0.645118559374994 7.16113833125000 
 N -4.36884475625000 4.95421655937499 7.66820433125000 
 S -5.40889675625000 0.262746559374994 5.70815533125000 
 S -5.35090575625000 4.51857755937499 6.42125733125000 
 S -2.56239175625000 1.34155155937499 2.91059633125000 
 S -2.66944275625000 4.85416555937499 3.29726333125000 
 S -3.18944075625000 1.27182255937499 7.07285733125000 
 S -2.78901075625000 5.28374855937499 7.27153133125000 
