16

 C -2.97986290937500 1.75401301562500 5.57772020937500 
 C -3.10368290937500 5.36712701562500 5.60157920937500 
 C -4.11142790937500 1.09994101562500 4.97624520937500 
 C -4.31097890937500 4.85962901562500 5.01227120937500 
 N -1.88785090937500 1.93116901562500 4.80794220937500 
 N -2.08510990937500 5.60509401562500 4.76923120937500 
 N -3.85080390937500 0.624699015624997 3.76269520937500 
 N -4.14934490937500 4.51900701562500 3.72935720937500 
 N -4.78040790937500 1.41313001562500 7.54926720937500 
 N -4.83873290937500 5.32794301562500 7.49868820937500 
 S -5.44581590937500 0.774394015624997 6.18155220937500 
 S -5.70125490937500 4.97137701562500 6.10355120937500 
 S -2.36866690937500 1.15062301562500 3.31746220937500 
 S -2.61200890937500 4.97099301562500 3.31984320937500 
 S -3.26921990937500 2.12437801562500 7.33525420937500 
 S -3.23694890937500 5.67050801562500 7.23844020937500 
