16

 C -3.14785082812500 1.46435525625001 5.34590924375000 
 C -3.05996982812500 4.89930425625001 5.56312824375000 
 C -4.27146782812500 0.622969256250006 4.75135024375000 
 C -4.36053082812500 4.69443225625001 5.00693524375000 
 N -2.18048282812500 1.65460225625000 4.48242724375000 
 N -2.08711782812500 4.90834125625000 4.64862924375000 
 N -4.10625782812500 0.278732256250005 3.49568124375000 
 N -4.42848482812500 4.59234825625001 3.68547924375000 
 N -4.91385782812500 1.09452025625001 7.15150924375000 
 N -4.67943382812500 4.86675925625000 7.52727424375000 
 S -5.52302982812500 0.260663256250005 5.83074824375000 
 S -5.57330482812500 4.43315825625000 6.20472424375000 
 S -2.73405282812500 1.00685025625001 3.00685524375000 
 S -2.84894882812500 4.77213725625001 3.15857224375000 
 S -3.35163582812500 1.70841925625001 7.00443724375000 
 S -3.07517582812500 5.13812825625001 7.27423824375000 
