16

 C -3.14302335000000 1.24558090312500 5.86891540312500 
 C -3.04155535000000 4.74979190312500 5.32636540312500 
 C -4.35938835000000 0.811511903125000 5.21263540312500 
 C -4.36133535000000 4.48327490312500 4.79059040312500 
 N -2.18466135000000 1.60482490312500 5.05416940312500 
 N -2.03314235000000 4.75945290312500 4.45978740312500 
 N -4.25299435000000 0.719676903125000 3.92260440312500 
 N -4.37115735000000 4.51069690312500 3.45949440312500 
 N -4.93159435000000 0.570738903125000 7.70629340312500 
 N -4.61250835000000 4.59298590312500 7.36576040312500 
 S -5.60837635000000 0.151927903125000 6.21912940312500 
 S -5.55673035000000 4.40062290312500 6.04162440312500 
 S -2.75764835000000 1.27176090312500 3.52001140312500 
 S -2.78727735000000 4.68928690312500 3.00875940312500 
 S -3.37208035000000 1.15543990312500 7.57976740312500 
 S -2.95225235000000 4.77738190312500 7.11151440312500 
