16

 C -3.28013682812500 1.56094841250000 5.49362464687500 
 C -3.09962682812500 5.18728241250000 5.68923864687500 
 C -4.54558882812500 1.11548441250000 4.92673164687500 
 C -4.29444182812500 4.66449641250000 5.11190164687500 
 N -2.35166382812500 1.81195441250000 4.54330064687500 
 N -2.03672382812500 5.28127241250000 4.82960764687500 
 N -4.58935782812500 1.08616041250000 3.59942464687500 
 N -4.23152682812500 4.67396941250000 3.75503264687500 
 N -4.83770682812500 1.11947041250000 7.47862664687500 
 N -4.89652882812500 5.10963041250000 7.52659264687500 
 S -5.72962482812500 0.999035412499999 6.15951864687500 
 S -5.57834182812500 4.40491341250000 6.13082764687500 
 S -3.06963482812500 1.38790241250000 3.06851964687500 
 S -2.67761782812500 5.02986341250000 3.34986764687500 
 S -3.24013682812500 1.70482341250000 7.29152264687500 
 S -3.23617782812500 5.45129641250000 7.41914064687500 
