16

 C -2.85000258750000 1.15823823750000 5.47695191562500 
 C -3.02779958750000 5.12262323750000 5.62208691562500 
 C -4.11312758750000 0.940332237499999 4.81643291562500 
 C -4.20748358750000 4.61507923750000 4.99087391562500 
 N -1.84907758750000 1.29085423750000 4.68241591562500 
 N -1.97196858750000 5.43570823750000 4.88020291562500 
 N -4.01282158750000 0.753424237499999 3.52199691562500 
 N -3.95874958750000 4.40495023750000 3.69120291562500 
 N -4.56264258750000 1.22869223750000 7.26595191562500 
 N -4.76221058750000 4.81513623750000 7.48417491562500 
 S -5.39889658750000 0.846191237499999 5.90363691562500 
 S -5.50627658750000 4.25307823750000 6.10178591562500 
 S -2.38725958750000 1.19102023750000 3.16317391562500 
 S -2.43406458750000 4.93918923750000 3.37307491562500 
 S -2.94822758750000 1.48945223750000 7.14896191562500 
 S -3.21628658750000 5.40220123750000 7.30818291562500 
