16

 C -3.03768808750000 1.81606106250000 5.48521540000000 
 C -3.10296708750000 5.31692006250000 5.66570140000000 
 C -4.27954608750000 1.38482006250000 4.92752440000000 
 C -4.24354608750000 4.82901906250000 4.93179940000000 
 N -2.03539308750000 1.85428706250000 4.59921840000000 
 N -2.06001408750000 5.49716906250000 4.87603940000000 
 N -4.30058808750000 1.11960606250000 3.59273940000000 
 N -4.10670408750000 4.61956206250000 3.62673540000000 
 N -4.64343508750000 1.31285506250000 7.54505140000000 
 N -4.87322808750000 4.77914206250000 7.48200940000000 
 S -5.52998708750000 1.27567406250000 6.17340740000000 
 S -5.61545408750000 4.56099306250000 5.98754940000000 
 S -2.74674208750000 1.47257406250000 3.08303540000000 
 S -2.49661608750000 5.14430006250000 3.31557340000000 
 S -3.01865408750000 1.66787406250000 7.24836040000000 
 S -3.28277108750000 5.29055806250000 7.42266840000000 
