16

 C -2.88236025000000 1.57484105000000 5.83506731562500 
 C -3.33096125000000 5.35763105000000 5.53576031562500 
 C -4.16254125000000 1.40060905000000 5.18147231562500 
 C -4.54920925000000 4.90971605000000 4.89822831562500 
 N -1.88538225000000 1.67164005000000 4.99602531562500 
 N -2.37683225000000 5.65168405000000 4.66099031562500 
 N -4.05821425000000 1.34436105000000 3.86056531562500 
 N -4.55526025000000 4.81228005000000 3.58963031562500 
 N -4.60284725000000 1.44475005000000 7.70614531562500 
 N -5.07249425000000 5.05782205000000 7.42030431562500 
 S -5.45449325000000 1.42278905000000 6.27412731562500 
 S -5.83275925000000 4.67775805000000 6.00390731562500 
 S -2.47741325000000 1.55691005000000 3.41697631562500 
 S -3.05648325000000 5.22958705000000 3.13561931562500 
 S -2.89497025000000 1.56492505000000 7.51471931562500 
 S -3.46907525000000 5.51877905000000 7.25419631562500 
