16

 C -3.23431700000000 1.19627582812500 5.51554308125000 
 C -2.95450000000000 5.09277082812500 5.42525008125000 
 C -4.48488700000000 0.750684828125000 5.05478308125000 
 C -4.18340100000000 4.91550382812500 4.71264508125000 
 N -2.32649300000000 1.31789282812500 4.54838608125000 
 N -1.86003600000000 5.24566282812500 4.68023508125000 
 N -4.58240900000000 0.604553828125001 3.74268608125000 
 N -4.00559500000000 4.85401982812500 3.39875408125000 
 N -4.83067400000000 0.981600828125001 7.60721208125000 
 N -4.82765700000000 4.78431382812500 7.26114408125000 
 S -5.74617400000000 0.780367828125001 6.21386008125000 
 S -5.52049800000000 4.63278282812500 5.72672908125000 
 S -3.07224900000000 0.958055828125000 3.09069408125000 
 S -2.38171200000000 5.06170282812500 3.11088908125000 
 S -3.26100900000000 1.35490282812500 7.27351708125000 
 S -3.17558500000000 5.11085982812500 7.23169508125000 
