16

 C -3.54995356250000 1.53280425937501 5.33222520312500 
 C -3.29455756250000 5.00864825937501 5.77666120312500 
 C -4.63447356250000 0.996280259375006 4.57409420312500 
 C -4.51907156250000 4.61673825937501 5.12545720312500 
 N -2.48233856250000 1.87402725937501 4.64002620312500 
 N -2.31344756250000 5.10156425937501 4.95104620312500 
 N -4.44074556250000 0.983407259375006 3.22566720312500 
 N -4.52429956250000 4.52534825937501 3.80492120312500 
 N -5.21889256250000 0.886673259375005 7.09618720312500 
 N -5.08456756250000 4.96840825937501 7.63169520312500 
 S -5.99657056250000 0.667990259375006 5.64036820312500 
 S -5.85407456250000 4.60653425937501 6.18483420312500 
 S -2.88727956250000 1.59208725937501 3.06955720312500 
 S -2.85526856250000 4.79818425937501 3.43785120312500 
 S -3.79179856250000 1.67629325937501 7.06834420312500 
 S -3.40775356250000 5.16235625937500 7.51636420312500 
