16

 C -3.25314016875000 1.38543795937500 5.55224929375000 
 C -3.19371816875000 5.02720595937500 5.68185429375000 
 C -4.45653116875000 0.858987959374999 4.99455629375000 
 C -4.33448316875000 4.38703495937500 5.10736429375000 
 N -2.24860416875000 1.39048295937500 4.68841629375000 
 N -2.13857716875000 5.08806495937500 4.83477629375000 
 N -4.39764216875000 0.437176959374999 3.73418929375000 
 N -4.25529116875000 4.13600895937500 3.80656429375000 
 N -4.89478616875000 1.24392495937500 7.57506029375000 
 N -4.91264016875000 4.81475395937500 7.50533729375000 
 S -5.74742616875000 0.872390959374999 6.18001129375000 
 S -5.63603116875000 4.28288395937500 6.14747429375000 
 S -2.87475216875000 0.798277959374999 3.21233829375000 
 S -2.75188016875000 4.61668395937500 3.36172729375000 
 S -3.23599516875000 1.76383295937500 7.30493329375000 
 S -3.34083016875000 5.20132895937500 7.38170329375000 
