16

 C -3.05444958437500 1.56070302500000 5.70955187812500 
 C -3.03783758437500 5.25533302500000 5.80914687812500 
 C -4.23240558437500 1.04303002500000 5.04605387812500 
 C -4.28555658437500 4.95403702500000 5.13952587812500 
 N -1.99745458437500 1.57229102500000 4.87805087812500 
 N -1.94232458437500 5.29425102500000 5.04750087812500 
 N -4.13156158437500 0.879941024999998 3.71741187812500 
 N -4.11102758437500 4.87518102500000 3.84086887812500 
 N -4.95559258437500 1.35030402500000 7.43464587812500 
 N -4.87733658437500 5.09304902500000 7.61969987812500 
 S -5.57353458437500 0.692575024999998 6.02258587812500 
 S -5.65552858437500 4.75929802500000 6.21256387812500 
 S -2.57818558437500 1.25439902500000 3.39881787812500 
 S -2.53598958437500 5.14438802500000 3.51019187812500 
 S -3.31124158437500 1.84000202500000 7.41913987812500 
 S -3.28922658437500 5.43056902500000 7.52643087812500 
