16

 C -3.09359921875000 1.52088935625000 5.57352344375000 
 C -2.96904421875000 5.34314135625000 5.45255744375000 
 C -4.33761521875000 1.00625835625000 5.09177044375000 
 C -4.19693121875000 4.89352635625000 4.81152444375000 
 N -2.17154521875000 1.63349535625000 4.66204844375000 
 N -2.00439421875000 5.56360935625000 4.55967644375000 
 N -4.29835921875000 0.652944356250002 3.82510544375000 
 N -4.11807121875000 4.73725635625000 3.49771744375000 
 N -4.59460121875000 1.17201435625000 7.62567144375000 
 N -4.54316621875000 4.87600635625000 7.30778544375000 
 S -5.56133321875000 0.817728356250002 6.28446244375000 
 S -5.45198921875000 4.64869035625000 5.98357544375000 
 S -2.82532121875000 1.14042935625000 3.21301544375000 
 S -2.60082921875000 5.23616735625000 3.00617844375000 
 S -3.03709921875000 1.60295635625000 7.36682244375000 
 S -2.98193921875000 5.41666835625000 7.17214944375000 
