16

 C -3.36315433125000 1.32959662187500 5.36778603750000 
 C -3.21465133125000 5.46613362187500 5.69201203750000 
 C -4.49115633125000 0.655735621874999 4.73335503750000 
 C -4.40011733125000 5.12048662187500 4.93464903750000 
 N -2.31974533125000 1.54178362187500 4.56588803750000 
 N -2.05233333125000 5.60611062187500 5.02774203750000 
 N -4.36313633125000 0.465310621874999 3.43828803750000 
 N -4.09410833125000 5.07412362187500 3.64066603750000 
 N -5.12278633125000 1.12407962187500 7.22151203750000 
 N -5.13727333125000 5.14841962187500 7.36061203750000 
 S -5.76610933125000 0.416491621874999 5.87637703750000 
 S -5.88644233125000 5.07766762187500 5.87239903750000 
 S -2.85108233125000 1.04280562187500 3.03856503750000 
 S -2.47851533125000 5.39981862187500 3.41850203750000 
 S -3.47648433125000 1.52419662187500 7.02391503750000 
 S -3.50559433125000 5.41429962187500 7.35181903750000 
