16

 C -3.15651078125000 1.47012556875000 5.26513394375000 
 C -3.09382578125000 5.25387056875000 5.55635194375000 
 C -4.31701078125000 0.971020568750000 4.59135894375000 
 C -4.36902078125000 4.77142856875000 4.99757394375000 
 N -2.15597478125000 1.79179556875000 4.45688194375000 
 N -2.08572678125000 5.27907056875000 4.70693294375000 
 N -4.35842378125000 0.984519568750001 3.24224094375000 
 N -4.35029178125000 4.58465756875000 3.67911794375000 
 N -4.73795378125000 0.514876568750001 7.21796194375000 
 N -4.63126578125000 5.02639356875000 7.53807294375000 
 S -5.51771178125000 0.292062568750000 5.74422994375000 
 S -5.55878278125000 4.44232956875000 6.24388894375000 
 S -2.81115978125000 1.58777856875000 2.89131594375000 
 S -2.71563978125000 4.91591856875000 3.23414894375000 
 S -3.26003378125000 1.31773756875000 7.06298794375000 
 S -3.08195378125000 5.59245256875000 7.22087094375000 
