16

 C -2.91436492812500 1.61283590312500 5.77918803437500 
 C -3.15720292812500 5.25257390312500 5.68700503437500 
 C -4.21208392812500 1.38492190312500 5.12721803437500 
 C -4.42318792812500 4.93003390312500 5.05714503437500 
 N -1.95838392812500 1.95123290312500 4.93219103437500 
 N -2.19068592812500 5.47620590312500 4.79375003437500 
 N -4.17594492812500 1.51320990312500 3.81924003437500 
 N -4.36928692812500 4.75246890312500 3.73316303437500 
 N -4.67044392812500 1.58927690312500 7.62425503437500 
 N -4.79709392812500 5.23794690312500 7.62620403437500 
 S -5.52992192812500 1.49668690312500 6.24472503437500 
 S -5.68079092812500 4.83707190312500 6.26564803437500 
 S -2.56609692812500 1.83111290312500 3.40068903437500 
 S -2.77129092812500 5.07647690312500 3.30920003437500 
 S -3.05866492812500 1.77286690312500 7.47258603437500 
 S -3.15173892812500 5.51937290312500 7.43193603437500 
