16

 C -3.19959014687500 1.30682119062500 5.18560355000000 
 C -3.30532914687500 5.08822819062499 5.39539855000000 
 C -4.48691714687500 0.948561190624996 4.69087755000000 
 C -4.58309214687500 4.65990419062499 4.87976855000000 
 N -2.22664014687500 1.25310019062500 4.29508355000000 
 N -2.32987814687500 5.18426519062500 4.57446155000000 
 N -4.50347314687500 0.511845190624995 3.44947455000000 
 N -4.48639014687500 4.47923419062500 3.56349055000000 
 N -4.96519614687500 1.13541119062500 7.21154755000000 
 N -4.79247214687500 4.84179619062499 7.40506955000000 
 S -5.75889514687500 0.805615190624995 5.74909255000000 
 S -5.76841014687500 4.56201819062500 6.16349155000000 
 S -2.96817314687500 0.761732190624996 2.83647555000000 
 S -2.89671814687500 4.80280419062500 3.08477155000000 
 S -3.34691014687500 1.49890619062500 6.96145455000000 
 S -3.26173414687500 5.26700519062500 7.05037755000000 
