16

 C -2.94684959375000 1.20502481875000 5.26140099062500 
 C -2.93814459375000 5.10945781875000 5.58615199062500 
 C -4.09503659375000 0.711041818749997 4.59826699062500 
 C -4.18520359375000 4.52544581875000 5.15407999062500 
 N -1.94652059375000 1.67750081875000 4.48295999062500 
 N -1.97958259375000 5.36481481875000 4.70057499062500 
 N -4.05010959375000 0.665640818749996 3.27253799062500 
 N -4.16335159375000 4.22067781875000 3.84821099062500 
 N -4.74088259375000 0.643628818749996 7.15765599062500 
 N -4.36917459375000 4.96028881875000 7.66639999062500 
 S -5.40451459375000 0.262741818749996 5.70857199062500 
 S -5.35443959375000 4.51918181875000 6.41832999062500 
 S -2.56909259375000 1.34994181875000 2.90681199062500 
 S -2.67362259375000 4.85397781875000 3.29733499062500 
 S -3.19041359375000 1.26811781875000 7.07266899062500 
 S -2.78743059375000 5.28617781875000 7.27093799062500 
