16

 C -2.95544695937500 1.29652676562500 5.39978509062500 
 C -3.31960095937500 5.34111576562500 5.30269409062500 
 C -4.15395295937500 0.969761765624997 4.73148709062500 
 C -4.39180395937500 4.56703876562500 4.76479909062500 
 N -1.95057895937500 1.59021376562500 4.57809209062500 
 N -2.29935595937500 5.52893476562500 4.45332409062500 
 N -4.07039895937500 0.782201765624998 3.44277509062500 
 N -4.09208795937500 4.00821376562500 3.58617709062500 
 N -4.66960995937500 1.10504076562500 7.32392709062500 
 N -5.22693795937500 5.26906776562500 7.12100009062500 
 S -5.53565395937500 0.991307765624998 5.88927409062500 
 S -5.80977895937500 4.35540376562500 5.82950709062500 
 S -2.40985095937500 1.09932576562500 3.08798209062500 
 S -2.64376295937500 4.59938676562500 3.11609209062500 
 S -3.08334595937500 1.51507976562500 7.09486509062500 
 S -3.64070995937500 5.93820076562500 6.86345809062500 
