16

 C -3.08127197500000 1.22028669375000 5.34485934062500 
 C -2.90024597500000 5.01680869375000 5.72407434062500 
 C -4.32533597500000 0.873767693749998 4.67170934062500 
 C -4.10247997500000 4.53933169375000 5.08104834062500 
 N -2.11373897500000 1.57706269375000 4.48625834062500 
 N -1.91228697500000 5.28809969375000 4.88142134062500 
 N -4.19405997500000 0.963415693749998 3.34687334062500 
 N -3.95503297500000 4.40795769375000 3.75941634062500 
 N -4.89458597500000 0.765098693749998 7.16799634062500 
 N -4.57747897500000 4.84280369375000 7.69604934062500 
 S -5.56137097500000 0.318874693749998 5.71508534062500 
 S -5.38198397500000 4.37856269375000 6.26217834062500 
 S -2.65647597500000 1.41719369375000 2.95684234062500 
 S -2.39986097500000 4.86480769375000 3.39826834062500 
 S -3.34554297500000 1.23550869375000 7.08585834062500 
 S -2.97400697500000 5.33810569375000 7.48075534062500 
