16

 C -3.12333589375000 1.57247026875000 5.57301166875000 
 C -3.11188289375000 4.94223726875000 5.53419566875000 
 C -4.42377689375000 1.27158826875000 5.02062166875000 
 C -4.36404389375000 4.60347626875000 4.88724066875000 
 N -2.17203689375000 1.75501026875000 4.65412066875000 
 N -2.14289089375000 5.21665626875000 4.65740566875000 
 N -4.47861289375000 1.29978326875000 3.67536866875000 
 N -4.35547789375000 4.56785426875000 3.56204566875000 
 N -4.71326289375000 1.63574326875000 7.63586366875000 
 N -4.93453889375000 4.67307726875000 7.37794866875000 
 S -5.70828589375000 1.41564326875000 6.35413066875000 
 S -5.75557689375000 4.54262726875000 5.89133966875000 
 S -2.92487889375000 1.53357326875000 3.19844666875000 
 S -2.80282089375000 4.94756026875000 3.16055266875000 
 S -3.08532889375000 1.69894626875000 7.36392966875000 
 S -3.28280289375000 4.88571126875000 7.24767466875000 
