16

 C -3.16011865625000 1.54025659375000 5.46747342187500 
 C -3.01667665625000 5.05274059375000 5.55378242187500 
 C -4.45991065625000 1.53355859375000 4.87529942187500 
 C -4.29453165625000 4.86066059375000 4.89295442187500 
 N -2.15898265625000 1.59931159375000 4.57645942187500 
 N -2.04312065625000 5.25776159375001 4.67005342187500 
 N -4.45336065625000 1.59949759375000 3.53518542187500 
 N -4.30458365625000 4.89726159375001 3.57804142187500 
 N -4.85540765625000 1.53453159375000 7.49245942187500 
 N -4.70430065625000 4.53434959375001 7.36433142187500 
 S -5.73698265625000 1.42654359375000 6.08482542187500 
 S -5.51528565625000 4.35940359375001 5.95321642187500 
 S -2.83773765625000 1.67603259375000 3.07171642187500 
 S -2.75065165625000 5.26413559375000 3.17419242187500 
 S -3.21448365625000 1.68468859375000 7.25727842187500 
 S -3.14150865625000 4.98666359375000 7.32012542187500 
