16

 C -2.87642397187500 1.57139002812500 5.83768859062500 
 C -3.35248497187500 5.37101202812500 5.53426559062500 
 C -4.13405797187500 1.37558502812500 5.19643159062500 
 C -4.55998997187500 4.92225902812500 4.91528859062500 
 N -1.88971597187500 1.64876902812500 4.98888059062500 
 N -2.40308997187500 5.65216302812500 4.67701659062500 
 N -4.08126197187500 1.35158402812500 3.87463859062500 
 N -4.54011397187500 4.79953202812500 3.59990359062500 
 N -4.59271697187500 1.42220702812500 7.70217159062500 
 N -5.06371697187500 5.05926702812500 7.42811359062500 
 S -5.44880697187500 1.41768702812500 6.27671559062500 
 S -5.84308297187500 4.69816302812500 6.01049959062500 
 S -2.46843497187500 1.53703702812500 3.43526659062500 
 S -3.04093097187500 5.21641802812500 3.14862659062500 
 S -2.89647997187500 1.55653902812500 7.50450759062500 
 S -3.47538297187500 5.47903902812500 7.26564459062500 
