16

 C -3.27534807500000 1.35362400937499 5.34023658750000 
 C -3.17834907500000 5.42361300937499 5.64521158750000 
 C -4.40622607500000 0.640314009374994 4.80217558750000 
 C -4.40094507500000 4.79480400937499 5.03780058750000 
 N -2.17586107500000 1.31393700937499 4.62627858750000 
 N -2.16437707500000 5.51902100937499 4.83033858750000 
 N -4.21397807500000 0.100226009374994 3.59793758750000 
 N -4.24585307500000 4.46606000937499 3.76344258750000 
 N -5.04640707500000 1.61089800937499 7.11327358750000 
 N -4.99424607500000 5.17688100937499 7.45607158750000 
 S -5.73036407500000 0.555873009374994 6.02124758750000 
 S -5.71645507500000 4.47473800937499 6.12482658750000 
 S -2.59226707500000 0.564908009374994 3.19812058750000 
 S -2.68911707500000 4.81594400937499 3.38162658750000 
 S -3.47551707500000 2.02666900937499 6.88094958750000 
 S -3.41028307500000 5.73218200937499 7.39531458750000 
