16

 C -3.34641872500000 1.15860170625000 5.52394878437500 
 C -3.13993572500000 5.03742770625000 5.32065878437500 
 C -4.46035372500000 0.605149706250002 4.80100478437500 
 C -4.38150172500000 4.65819570625000 4.59823378437500 
 N -2.30697772500000 1.43563670625000 4.70557778437500 
 N -2.02903872500000 4.97267470625000 4.59743078437500 
 N -4.33345272500000 0.536338706250002 3.48046978437500 
 N -4.15305372500000 4.36597770625000 3.34277978437500 
 N -5.40610072500000 1.17079670625000 7.06247478437500 
 N -5.02499972500000 5.37226670625000 7.06421778437500 
 S -5.90288272500000 0.222709706250002 5.76926178437500 
 S -5.78160072500000 4.82292470625000 5.70069278437500 
 S -2.80016672500000 0.959300706250001 3.20108978437500 
 S -2.46034172500000 4.53145770625000 3.11246178437500 
 S -3.82556872500000 1.59395970625000 7.20160678437500 
 S -3.40450972500000 5.54411270625000 6.99608578437500 
