16

 C -3.19746548125000 1.31595555937500 5.51003282187500 
 C -3.09153248125000 5.62347855937500 5.61802382187500 
 C -4.45918848125000 0.840613559375002 4.84983882187500 
 C -4.22471148125000 5.03203955937500 4.94882382187500 
 N -2.21958248125000 1.59076055937500 4.68978882187500 
 N -2.13248348125000 6.07215155937500 4.79586982187500 
 N -4.26015548125000 0.569597559375001 3.55811082187500 
 N -4.01409648125000 4.75398955937500 3.65093082187500 
 N -5.12476048125000 1.23396155937500 7.32076582187500 
 N -4.88268548125000 5.06493255937500 7.46120782187500 
 S -5.89430748125000 0.756570559375001 5.89880982187500 
 S -5.46960148125000 4.51443355937500 5.95649582187500 
 S -2.73631048125000 0.983835559375001 3.18218382187500 
 S -2.50754448125000 5.44808155937500 3.29491182187500 
 S -3.45738548125000 1.49612155937500 7.26156982187500 
 S -3.37689348125000 5.84719155937500 7.33602782187500 
