16

 C -2.98323834687500 1.54616060000000 5.70451316562500 
 C -3.11917934687500 4.61538260000000 5.55123016562500 
 C -4.24986234687500 1.11442160000000 5.12084816562500 
 C -4.39918634687500 4.35591060000000 4.86903016562500 
 N -1.92516634687500 1.66530160000000 4.85895316562500 
 N -2.08398734687500 4.67108760000000 4.72466816562500 
 N -4.18807634687500 0.943420600000000 3.78996416562500 
 N -4.26595034687500 4.25611960000000 3.54657516562500 
 N -4.81009534687500 1.51337060000000 7.60308216562500 
 N -4.86869234687500 4.53086260000000 7.35835716562500 
 S -5.62507734687500 1.22825660000000 6.17316116562500 
 S -5.74441534687500 4.23047760000000 5.96935516562500 
 S -2.61611034687500 1.23643460000000 3.43187916562500 
 S -2.63021034687500 4.47510460000000 3.21873416562500 
 S -3.12409734687500 1.71132660000000 7.45823916562500 
 S -3.21548234687500 4.72178660000000 7.28406616562500 
