16

 C -3.24342558125000 1.18969307500000 5.56706368125000 
 C -3.17559358125000 5.52614007500000 5.72683068125000 
 C -4.43588758125000 0.691337075000002 4.90976368125000 
 C -4.23429058125000 4.79427907500000 5.02639768125000 
 N -2.24516358125000 1.33211807500000 4.67154268125000 
 N -2.17708858125000 5.94870607500000 4.91973468125000 
 N -4.37923258125000 0.577937075000001 3.56766968125000 
 N -4.09990958125000 4.88380207500000 3.71776068125000 
 N -4.97611558125000 0.803518075000001 7.40048468125000 
 N -4.82767258125000 4.66817007500000 7.49565268125000 
 S -5.75558658125000 0.498149075000001 5.96154168125000 
 S -5.58094758125000 4.35941107500000 6.04242168125000 
 S -2.89329658125000 1.16965507500000 3.14002568125000 
 S -2.69677458125000 5.55239907500000 3.37430168125000 
 S -3.39610658125000 1.23376507500000 7.27624468125000 
 S -3.30063258125000 5.38896507500000 7.43228268125000 
