16

 C -3.14187534375000 1.34664688125000 5.25533508750000 
 C -3.01493534375000 4.91720688125000 5.53430508750000 
 C -4.23748634375000 0.683079881250002 4.69983708750000 
 C -4.34594534375000 4.69959888125000 5.03831108750000 
 N -2.18546734375000 1.74250888125000 4.40560608750000 
 N -2.00914634375000 4.98458488125000 4.67192708750000 
 N -4.09228034375000 0.356221881250002 3.41006508750000 
 N -4.32783634375000 4.55465188125000 3.71791708750000 
 N -4.92710934375000 1.00586688125000 7.15598608750000 
 N -4.66318834375000 4.87114388125000 7.61320508750000 
 S -5.54016334375000 0.274215881250002 5.79716708750000 
 S -5.55166434375000 4.39913388125000 6.27742808750000 
 S -2.64496034375000 1.05130988125000 2.94443408750000 
 S -2.77632134375000 4.77709388125000 3.20481908750000 
 S -3.38201034375000 1.62247388125000 7.03981708750000 
 S -3.01691234375000 5.06240588125000 7.23507508750000 
