16

 C -3.29071257187500 1.39294556875000 5.55589628125000 
 C -2.94853157187500 5.23835456875000 5.43122528125000 
 C -4.44521057187500 0.690367568750004 5.04153828125000 
 C -4.20008557187500 4.92382456875000 4.80989328125000 
 N -2.28684457187500 1.61837256875000 4.71429428125000 
 N -1.91982757187500 5.38339056875000 4.65328728125000 
 N -4.32124157187500 0.438498568750004 3.74529328125000 
 N -4.11886057187500 4.86025656875000 3.50965928125000 
 N -5.06420757187500 1.25656556875000 7.37348828125000 
 N -4.67914857187500 5.12484856875000 7.36876228125000 
 S -5.65191457187500 0.351209568750003 6.16064028125000 
 S -5.48324457187500 4.68279956875000 5.98902728125000 
 S -2.84742357187500 1.03158256875000 3.22154028125000 
 S -2.55355757187500 5.10447856875000 3.05355028125000 
 S -3.55619357187500 1.85159956875000 7.19545828125000 
 S -3.07055257187500 5.39380556875000 7.15037528125000 
