16

 C -2.94271227500000 1.47617483437500 5.27020620937500 
 C -3.07353827500000 5.06688883437500 5.48910920937500 
 C -4.15106027500000 1.08631083437500 4.71819420937500 
 C -4.26176627500000 4.56451483437500 4.81170720937500 
 N -1.91645927500000 1.60855883437500 4.44105920937500 
 N -2.09017827500000 5.33887983437500 4.66063820937500 
 N -4.15079127500000 0.919519834375000 3.38847320937500 
 N -4.18614027500000 4.45878483437500 3.49465120937500 
 N -4.65588127500000 1.18505683437500 7.21470620937500 
 N -4.92276027500000 4.73232383437500 7.32781720937500 
 S -5.50955627500000 1.00546783437500 5.80475720937500 
 S -5.54635827500000 4.16690883437500 5.86210920937500 
 S -2.58536427500000 1.33080083437500 2.90898920937500 
 S -2.63194627500000 4.92924883437500 3.09335720937500 
 S -3.06405327500000 1.62144083437500 7.07235720937500 
 S -3.33223327500000 5.26624583437500 7.25194620937500 
