16

 C -2.90203651250000 1.44555600000000 5.66893539375000 
 C -3.04785251250000 4.97573500000000 5.35399339375000 
 C -4.15849751250000 0.831530000000000 5.08545539375000 
 C -4.27288351250000 4.43286800000000 4.78459239375000 
 N -1.94415651250000 1.55983300000000 4.75414439375000 
 N -2.05552751250000 4.89200400000000 4.51257639375000 
 N -4.05677451250000 0.405688000000000 3.84164739375000 
 N -4.23208051250000 4.13546800000000 3.50824839375000 
 N -4.65490151250000 1.40041100000000 7.41533539375000 
 N -4.90699651250000 5.14192700000000 7.14332039375000 
 S -5.47235051250000 0.752841000000000 6.14388139375000 
 S -5.65535751250000 4.44710600000000 5.79077839375000 
 S -2.52772851250000 0.808358000000000 3.36664139375000 
 S -2.67245651250000 4.29535800000000 3.06566439375000 
 S -3.04590151250000 1.85408100000000 7.33075739375000 
 S -3.21783351250000 5.37985400000000 6.99324639375000 
