16

 C -3.13065112187500 0.923450618750002 5.60966695312500 
 C -3.17156612187500 4.87810361875000 5.33972195312500 
 C -4.40766812187500 0.810892618750002 4.88038495312500 
 C -4.37420312187500 4.50872261875000 4.65138695312500 
 N -2.05883812187500 0.937095618750002 4.85405495312500 
 N -2.10593012187500 5.03654661875000 4.55153495312500 
 N -4.18554712187500 0.783448618750002 3.57794495312500 
 N -4.21205512187500 4.29219161875000 3.32867895312500 
 N -5.02199712187500 0.611204618750002 7.38579395312500 
 N -4.90689412187500 4.68860961875000 7.15629795312500 
 S -5.78111412187500 0.399667618750001 5.93239995312500 
 S -5.65281812187500 4.13851061875000 5.77607895312500 
 S -2.57241312187500 0.937828618750002 3.30507795312500 
 S -2.61478812187500 4.69529161875000 3.03804995312500 
 S -3.37470212187500 0.907085618750002 7.29407895312500 
 S -3.44262212187500 5.38012461875000 7.02177695312500 
