16

 C -3.17088282187500 1.34551730625000 5.56467402187500 
 C -2.96733282187500 5.24405630625000 5.45328002187500 
 C -4.38325582187500 0.785950306249999 5.04725502187500 
 C -4.21716082187500 4.87190630625000 4.82031402187500 
 N -2.22999082187500 1.59503130625000 4.66996202187500 
 N -1.93526582187500 5.48984330625000 4.59773202187500 
 N -4.37106782187500 0.583206306250000 3.76665202187500 
 N -4.16265382187500 4.86065430625000 3.46893402187500 
 N -4.85000482187500 1.25084330625000 7.55370402187500 
 N -4.55485782187500 5.07048230625000 7.34865202187500 
 S -5.60539582187500 0.525503306250000 6.23195602187500 
 S -5.43527482187500 4.66273330625000 6.02710602187500 
 S -2.85282782187500 1.03985530625000 3.17144502187500 
 S -2.64528082187500 5.29809230625000 3.05125902187500 
 S -3.25661182187500 1.80806930625000 7.28957902187500 
 S -2.98673682187500 5.40075330625000 7.15396702187500 
