16

 C -3.19115810625000 1.30735324687500 5.68446409375000 
 C -3.51602110625000 5.33680924687500 5.37060709375000 
 C -4.26656810625000 0.605792246875000 5.04094809375000 
 C -4.50722210625000 4.43591824687500 4.82729909375000 
 N -2.23655710625000 1.61207624687500 4.84073209375000 
 N -2.39899210625000 5.57870624687500 4.61772509375000 
 N -4.19755510625000 0.478320246875000 3.69736509375000 
 N -4.25539310625000 4.14915724687500 3.52987809375000 
 N -4.83333410625000 0.824956246875000 7.50403309375000 
 N -5.28484610625000 4.99267924687500 7.26667909375000 
 S -5.59450510625000 0.314070246875000 6.13042609375000 
 S -5.80641610625000 4.14038124687500 5.88242109375000 
 S -2.63457610625000 1.11924424687500 3.36982709375000 
 S -2.79653210625000 4.88441624687500 3.14150909375000 
 S -3.34387610625000 1.66534224687500 7.39711709375000 
 S -3.80730010625000 5.73547324687500 7.03203809375000 
