16

 C -3.29059975625000 0.973136190625000 5.47075900625000 
 C -3.28849275625000 5.10089019062500 5.73344500625000 
 C -4.52114575625000 0.730334190624999 4.78741400625000 
 C -4.41879275625000 4.48761119062500 5.09060200625000 
 N -2.21497175625000 1.18676019062500 4.72747600625000 
 N -2.26692975625000 5.28961419062500 4.88992500625000 
 N -4.38602275625000 0.720242190624999 3.47316100625000 
 N -4.31325375625000 4.36659419062500 3.77353100625000 
 N -5.05079175625000 0.610745190624999 7.30050000625000 
 N -4.94929575625000 4.60986119062500 7.64432500625000 
 S -5.83672975625000 0.385022190625000 5.81483000625000 
 S -5.66524775625000 4.21033019062500 6.18867000625000 
 S -2.79702575625000 1.16713219062500 3.16964100625000 
 S -2.77752175625000 4.85178219062500 3.38472200625000 
 S -3.41432275625000 0.853552190624999 7.19466700625000 
 S -3.35470875625000 5.20339519062500 7.46449900625000 
