16

 C -3.32709895937500 1.09347045937500 5.46818564687500 
 C -3.33227995937500 5.20038645937500 5.23350964687500 
 C -4.49417495937500 0.765692459374997 4.73967764687500 
 C -4.33815195937500 4.43929945937500 4.54014064687500 
 N -2.26439595937500 1.21901945937500 4.70822664687500 
 N -2.37090095937500 5.72736945937500 4.51711564687500 
 N -4.32838795937500 0.706241459374998 3.44126164687500 
 N -4.09613995937500 4.41939745937500 3.21319964687500 
 N -5.17239295937500 0.816913459374998 7.18051264687500 
 N -5.03571295937500 4.60552845937500 7.01790864687500 
 S -5.80950095937500 0.348875459374997 5.74317864687500 
 S -5.57160095937500 3.83729445937500 5.66198064687500 
 S -2.73744995937500 0.951093459374998 3.13159764687500 
 S -2.71939995937500 5.31339345937500 2.90395364687500 
 S -3.56317995937500 1.19586745937500 7.19906464687500 
 S -3.51446795937500 5.32569245937500 6.94466764687500 
