16

 C -3.04218364375000 1.29487955312500 5.77615001250000 
 C -3.20108464375000 5.08390255312500 5.56442501250000 
 C -4.35701564375000 0.885985553125000 5.16717101250000 
 C -4.44645164375000 4.59959055312500 4.96229401250000 
 N -2.00295764375000 1.14016955312500 4.94504701250000 
 N -2.18140964375000 5.13494955312500 4.70286001250000 
 N -4.27820764375000 0.576507553125001 3.87510001250000 
 N -4.39756364375000 4.54952455312500 3.62837201250000 
 N -4.72128064375000 1.47860655312500 7.65970001250000 
 N -4.81196764375000 4.98685455312500 7.44681801250000 
 S -5.60706964375000 1.03984555312500 6.29883301250000 
 S -5.72300364375000 4.51719255312500 6.15213001250000 
 S -2.67259964375000 0.659171553125000 3.49548601250000 
 S -2.80560964375000 4.76744855312500 3.19454901250000 
 S -3.12454164375000 1.81125855312500 7.41177201250000 
 S -3.21080664375000 5.39539555312500 7.23670301250000 
