16

 C -3.12452414687500 1.41708331875000 5.55369144375000 
 C -3.36254814687500 5.20574831875000 5.42040244375000 
 C -4.37297914687500 0.946205318750001 4.88687044375000 
 C -4.55816914687500 4.81692931875000 4.70477844375000 
 N -2.10580214687500 1.62127731875000 4.69073844375000 
 N -2.32178214687500 5.48119531875000 4.65477644375000 
 N -4.16651914687500 0.682686318750001 3.59989844375000 
 N -4.40876214687500 4.69980331875000 3.39374944375000 
 N -4.89807014687500 1.24755131875000 7.47725144375000 
 N -5.08170814687500 4.75771331875000 7.24840444375000 
 S -5.64180714687500 0.636843318750001 6.08801744375000 
 S -5.85188214687500 4.45341631875000 5.79005644375000 
 S -2.59708114687500 1.27864231875000 3.13349144375000 
 S -2.80559514687500 5.20901731875000 3.10547944375000 
 S -3.30087314687500 1.60924431875000 7.26023244375000 
 S -3.52674714687500 5.26090931875000 7.19494644375000 
