16

 C -3.01175806875000 1.21205344375000 5.52027492812500 
 C -3.11894406875000 5.25237844375000 5.26349292812500 
 C -4.24185506875000 0.885576443750000 4.77909892812500 
 C -4.37096006875000 4.83778444375000 4.60592592812500 
 N -1.92851806875000 1.37793844375000 4.82470692812500 
 N -2.19250106875000 5.55817444375000 4.37163092812500 
 N -4.02574806875000 0.704719443749999 3.47439692812500 
 N -4.26655806875000 4.59558744375000 3.28821792812500 
 N -4.89654806875000 1.15368944375000 7.32522092812500 
 N -4.77965306875000 4.91741944375000 7.18545492812500 
 S -5.56859806875000 0.894517443749999 5.82627692812500 
 S -5.63209906875000 4.66360144375000 5.79994092812500 
 S -2.40263406875000 0.955668443750000 3.24365892812500 
 S -2.67715306875000 5.12724844375000 2.85934492812500 
 S -3.26489306875000 1.57425644375000 7.25473492812500 
 S -3.24159806875000 5.43762644375000 7.03542592812500 
