16

 C -3.32712632812500 1.00284672812500 5.64731377187500 
 C -2.89494032812500 5.08300972812500 5.57724977187500 
 C -4.49581932812500 0.619429728124996 4.94589477187500 
 C -4.13230332812500 4.68653572812500 4.92964477187500 
 N -2.25961032812500 1.11499572812500 4.89580677187500 
 N -1.89527832812500 5.20402572812500 4.72223877187500 
 N -4.36811932812500 0.383869728124996 3.64654177187500 
 N -4.06419832812500 4.39992872812500 3.63429177187500 
 N -5.18938832812500 0.936587728124996 7.29487377187500 
 N -4.71632532812500 4.79367872812500 7.37746577187500 
 S -5.82964732812500 0.275427728124995 5.87804977187500 
 S -5.43003432812500 4.28406872812500 5.96329777187500 
 S -2.78447832812500 0.889128728124996 3.34548977187500 
 S -2.47572132812500 4.77153372812500 3.21945677187500 
 S -3.58761232812500 1.26126972812500 7.30530177187500 
 S -3.15254432812500 5.36548772812500 7.29570477187500 
