16

 C -2.96386508125000 1.24637906875000 5.51839275312500 
 C -2.94673708125000 5.03477506875000 5.69038175312500 
 C -4.05104808125000 0.678481068750001 4.85798775312500 
 C -4.14683508125000 4.49457106875000 5.08400175312500 
 N -1.88199308125000 1.29767506875000 4.75992875312500 
 N -1.96818108125000 5.22789406875000 4.82082075312500 
 N -3.86785508125000 0.424334068750000 3.56677775312500 
 N -4.03995108125000 4.39774906875000 3.76580075312500 
 N -4.87965508125000 1.23562106875000 7.20729975312500 
 N -4.62671708125000 4.86552206875000 7.65399375312500 
 S -5.48604508125000 0.551158068750000 5.78674975312500 
 S -5.42845208125000 4.27517506875000 6.32001575312500 
 S -2.29807808125000 0.850050068750001 3.24738375312500 
 S -2.52746108125000 4.85869506875000 3.28599875312500 
 S -3.24671908125000 1.63420706875000 7.14872475312500 
 S -3.07289808125000 5.39710906875000 7.40849875312500 
