16

 C -3.30250608750000 1.08550738125000 5.43754156250000 
 C -3.25589408750000 5.17319438125000 5.32117856250000 
 C -4.54881508750000 0.772673381250002 4.69832656250000 
 C -4.32535608750000 4.52156938125000 4.62548456250000 
 N -2.17694308750000 1.12177538125000 4.71617456250000 
 N -2.31006108750000 5.63156738125000 4.54127756250000 
 N -4.35632808750000 0.659602381250002 3.39264956250000 
 N -4.25153808750000 4.52059338125000 3.28389356250000 
 N -5.16445108750000 0.798261381250001 7.26386656250000 
 N -5.09195408750000 4.66681538125000 7.13106656250000 
 S -5.91341908750000 0.438101381250002 5.78662956250000 
 S -5.55098408750000 3.89659638125000 5.71261956250000 
 S -2.70409008750000 0.926633381250001 3.14716256250000 
 S -2.76987908750000 5.24220238125000 3.02855556250000 
 S -3.53810208750000 1.06412438125000 7.17128756250000 
 S -3.61328908750000 5.35416838125000 7.03616856250000 
