16

 C -2.94313659375000 1.63446375937500 5.54753741250000 
 C -3.03221359375000 5.30877575937500 5.51528941250000 
 C -4.14877759375000 1.06077275937500 4.97630541250000 
 C -4.29561559375000 4.97021775937500 4.91067941250000 
 N -1.92598459375000 1.70160975937500 4.68913141250000 
 N -1.96291559375000 5.31964975937500 4.70836041250000 
 N -4.04736459375000 0.874180759374996 3.68401341250000 
 N -4.21612059375000 4.87257575937500 3.58606041250000 
 N -4.79983559375000 1.46833175937500 7.39868441250000 
 N -4.83107659375000 5.26842975937500 7.39306341250000 
 S -5.50499859375000 0.867748759374996 5.98772141250000 
 S -5.63852159375000 4.80891275937500 5.99009341250000 
 S -2.50157459375000 1.36405575937500 3.13081341250000 
 S -2.56921459375000 5.02090475937500 3.17759441250000 
 S -3.23795359375000 1.92612475937500 7.29234341250000 
 S -3.21618359375000 5.62263675937500 7.17466441250000 
