16

 C -3.48376500625000 1.29671440625000 5.77579218437500 
 C -3.26091900625000 5.18045040625000 5.35566118437500 
 C -4.53572600625000 0.844018406250000 4.94667818437500 
 C -4.51655600625000 4.65595740625000 4.80988818437500 
 N -2.36092900625000 1.62505340625000 5.13664418437500 
 N -2.28118600625000 5.45340140625000 4.49190718437500 
 N -4.22282500625000 0.699676406250000 3.66930118437500 
 N -4.44747800625000 4.51582740625000 3.49294418437500 
 N -5.45903000625000 0.950904406250000 7.39306018437500 
 N -4.96160400625000 4.86661140625000 7.31979318437500 
 S -5.99419800625000 0.596371406250000 5.88669918437500 
 S -5.80695100625000 4.43791140625000 5.98030918437500 
 S -2.55862000625000 1.16249840625000 3.53675718437500 
 S -2.88697500625000 4.89564840625000 3.01398318437500 
 S -3.90955600625000 1.53889640625000 7.47549018437500 
 S -3.38394300625000 5.30645040625000 7.09442718437500 
