16

 C -3.06522685937500 1.25629114687500 5.77720176562500 
 C -3.22122585937500 5.06623314687500 5.55605276562500 
 C -4.36647985937500 0.879121146875000 5.17348076562500 
 C -4.45813885937500 4.57257514687500 4.96548276562500 
 N -2.03593085937500 1.14985414687500 4.93569476562500 
 N -2.18089585937500 5.13658814687500 4.71227476562500 
 N -4.29483985937500 0.584747146874999 3.88488876562500 
 N -4.39662085937500 4.54814114687500 3.62057976562500 
 N -4.72133885937500 1.47456014687500 7.63391376562500 
 N -4.80645985937500 4.99470514687500 7.46059276562500 
 S -5.61439685937500 1.05839414687500 6.29538876562500 
 S -5.73107785937500 4.51716114687500 6.14150776562500 
 S -2.68805185937500 0.678758146874999 3.51102376562500 
 S -2.80469085937500 4.80258914687500 3.19706676562500 
 S -3.13140585937500 1.79611714687500 7.39968576562500 
 S -3.20403085937500 5.41710514687500 7.24714976562500 
