16

 C -3.16639595625000 1.42102265937500 5.66375462187500 
 C -2.86965495625000 5.24530365937500 5.45348562187500 
 C -4.44621995625000 1.13267465937500 5.02538162187500 
 C -4.10441695625000 4.86209865937500 4.81717362187500 
 N -2.12345795625000 1.53896565937500 4.88785362187500 
 N -1.85457995625000 5.36201465937500 4.60453462187500 
 N -4.32939395625000 1.11986165937500 3.70475262187500 
 N -4.10256495625000 4.75497065937500 3.48405762187500 
 N -4.85143495625000 1.56724965937500 7.55153062187500 
 N -4.71987095625000 5.10056165937500 7.33372262187500 
 S -5.69256295625000 0.875683659375002 6.22291562187500 
 S -5.38688695625000 4.56352665937500 5.86643062187500 
 S -2.70075895625000 1.44761165937500 3.29279862187500 
 S -2.59515695625000 5.13453265937500 3.04953562187500 
 S -3.21038695625000 1.80923965937500 7.33559162187500 
 S -3.06289395625000 5.37247465937500 7.21794862187500 
