16

 C -3.09279481250000 1.41133948750000 5.47659426562500 
 C -3.25582281250000 4.99239948750000 5.58696526562500 
 C -4.34303481250000 0.942890487499998 4.87998226562500 
 C -4.42797181250000 4.60133048750000 4.88172926562500 
 N -2.20193681250000 1.68087248750000 4.56002626562500 
 N -2.24507581250000 5.38389448750000 4.83703026562500 
 N -4.21900981250000 0.702105487499997 3.57983926562500 
 N -4.28110581250000 4.55676948750000 3.54170626562500 
 N -4.74548381250000 1.10586748750000 7.46680526562500 
 N -4.95144581250000 4.86182648750000 7.42443026562500 
 S -5.62474381250000 0.939516487499998 6.06875826562500 
 S -5.71113981250000 4.38394948750000 6.04470926562500 
 S -2.65552581250000 1.05741148750000 3.08725326562500 
 S -2.73325381250000 5.12230348750000 3.23903426562500 
 S -3.19143081250000 1.65109548750000 7.19745726562500 
 S -3.31959381250000 5.06337948750000 7.31287426562500 
