16

 C -2.98496319687500 1.77631902812500 5.66186567187500 
 C -3.15620419687500 5.44053702812500 5.62473167187500 
 C -4.04301519687500 0.990304028125000 5.13513567187500 
 C -4.33687619687500 4.86865702812500 5.03139667187500 
 N -2.00614719687500 1.95661202812500 4.77664367187500 
 N -2.14821219687500 5.60335402812500 4.76170267187500 
 N -3.93893019687500 0.646926028125001 3.88127067187500 
 N -4.20223519687500 4.54141202812500 3.74530267187500 
 N -4.75387019687500 1.37032102812500 7.48019367187500 
 N -4.86210519687500 5.30960802812500 7.52330367187500 
 S -5.41729319687500 0.783977028125000 6.06550767187500 
 S -5.66075919687500 4.95756702812500 6.11837367187500 
 S -2.39324919687500 1.09386702812500 3.44323767187500 
 S -2.60537219687500 4.94645902812500 3.34067067187500 
 S -3.26255219687500 2.10801502812500 7.34909267187500 
 S -3.23907619687500 5.62005102812500 7.39925467187500 
