16

 C -3.08383639687500 1.46677528437500 5.64240277187500 
 C -3.31659639687500 5.07770428437500 5.28514677187500 
 C -4.29945839687500 1.06318628437500 4.86844177187500 
 C -4.47073339687500 4.52975928437500 4.61397777187500 
 N -2.00320139687500 1.61759428437500 4.85461377187500 
 N -2.19419239687500 5.12228428437500 4.57118077187500 
 N -4.06827239687500 0.779902284374999 3.57445177187500 
 N -4.17495039687500 4.05123628437500 3.40428977187500 
 N -5.07167139687500 1.23955628437500 7.35473977187500 
 N -5.24762739687500 5.25999128437500 6.96208877187500 
 S -5.75359339687500 1.01955528437500 5.83915977187500 
 S -5.90133039687500 4.60950328437500 5.61057477187500 
 S -2.54991039687500 1.16201228437500 3.33047277187500 
 S -2.63237639687500 4.49177128437500 3.10126677187500 
 S -3.41693139687500 1.76666828437500 7.35775877187500 
 S -3.62731339687500 5.44979028437500 7.00855977187500 
