16

 C -3.09607871875000 1.84406245000000 5.76828928125000 
 C -3.07872971875000 5.31010445000000 5.66798228125000 
 C -4.35657571875000 1.57778445000000 5.16403828125000 
 C -4.31150271875000 4.93067045000000 5.05078728125000 
 N -2.07702371875000 1.90847245000000 4.91118328125000 
 N -2.06911671875000 5.49014345000000 4.79510228125000 
 N -4.29592071875000 1.60064745000000 3.85448428125000 
 N -4.28094271875000 4.99895245000000 3.71789728125000 
 N -4.82146171875000 1.42792345000000 7.66996828125000 
 N -4.82732871875000 5.00109245000000 7.56387428125000 
 S -5.68133371875000 1.36872845000000 6.21078528125000 
 S -5.64966771875000 4.74221945000000 6.11973228125000 
 S -2.69807271875000 1.63650445000000 3.40803228125000 
 S -2.75792271875000 5.21630645000000 3.26772928125000 
 S -3.17039471875000 1.85529345000000 7.50463328125000 
 S -3.18172771875000 5.30968545000000 7.43247128125000 
