16

 C -3.21976556250000 1.21458298125000 5.28010579375000 
 C -2.89384356250000 5.05243698125000 5.42884779375000 
 C -4.45098256250000 0.807779981250001 4.64622079375000 
 C -4.07740056250000 4.49980098125000 4.79791279375000 
 N -2.17871156250000 1.20942298125000 4.46268179375000 
 N -1.93318156250000 5.36331698125000 4.57232479375000 
 N -4.41552156250000 0.536723981250001 3.34279079375000 
 N -3.96538456250000 4.23297098125000 3.48424079375000 
 N -5.09052156250000 1.63606798125000 6.97296579375000 
 N -4.82299656250000 5.11155798125000 7.18875779375000 
 S -5.85487356250000 0.967671981250001 5.65960979375000 
 S -5.42500656250000 4.36675898125000 5.85204079375000 
 S -2.84959356250000 0.832293981250001 2.96789979375000 
 S -2.44881456250000 4.82032298125000 3.07815179375000 
 S -3.39019256250000 1.63620398125000 6.98700679375000 
 S -3.20515856250000 5.59413598125000 7.07726679375000 
