16

 C -3.02367052500000 1.41524337500000 5.66724133437500 
 C -2.94678352500000 5.26214837500000 5.41685733437500 
 C -4.28928052500000 1.04320937500000 5.13435833437500 
 C -4.16629452500000 4.82835237500000 4.77097733437500 
 N -2.06320452500000 1.64195737500000 4.74031533437500 
 N -1.93049252500000 5.52347837500000 4.62182533437500 
 N -4.31572252500000 0.954305375000003 3.82119533437500 
 N -4.07991552500000 4.80132337500000 3.45209933437500 
 N -4.72043452500000 1.36432837500000 7.66051233437500 
 N -4.57281952500000 4.87573737500000 7.32984333437500 
 S -5.53296552500000 0.879092375000003 6.24128133437500 
 S -5.47523252500000 4.59752437500000 5.99311733437500 
 S -2.79535052500000 1.26865837500000 3.21651533437500 
 S -2.52734152500000 5.19329337500000 3.04606733437500 
 S -3.11093652500000 1.66704037500000 7.38884233437500 
 S -3.04433652500000 5.45339537500000 7.09166933437500 
