16

 C -3.32388670312500 1.57818616875000 5.56806140312500 
 C -3.37416370312500 5.36346216875000 5.71536440312500 
 C -4.57672870312500 1.17832516875000 4.97822440312500 
 C -4.44139670312500 4.70586316875000 5.04855340312500 
 N -2.32630870312500 1.72321216875000 4.67536840312500 
 N -2.33900870312500 5.53655816875000 4.85758840312500 
 N -4.54734770312500 1.10522416875000 3.66145340312500 
 N -4.35357170312500 4.60709216875000 3.68279040312500 
 N -4.83257070312500 1.07944116875000 7.49934140312500 
 N -5.04469770312500 4.85200216875000 7.60215240312500 
 S -5.78417070312500 0.930494168750003 6.17312840312500 
 S -5.73928270312500 4.29496716875000 6.15264840312500 
 S -3.05046470312500 1.48678716875000 3.18735340312500 
 S -2.85344470312500 5.19523216875000 3.33690240312500 
 S -3.26969570312500 1.60428716875000 7.24924040312500 
 S -3.42314470312500 5.40149816875000 7.44656940312500 
