16

 C -3.04756207812500 1.70568725937500 5.42655965937500 
 C -3.51146907812500 5.00333725937500 5.11596565937500 
 C -4.08653007812500 0.847721259375001 4.91790065937500 
 C -4.60445907812500 4.32888325937500 4.51630565937500 
 N -2.11185007812500 2.01563325937500 4.54110065937500 
 N -2.51816007812500 5.27272825937500 4.23892365937500 
 N -3.90113107812500 0.398018259375000 3.65644865937500 
 N -4.36100607812500 3.88586025937500 3.28210865937500 
 N -4.69872607812500 1.20252725937500 7.29751265937500 
 N -5.43692407812500 4.89434125937500 6.83769265937500 
 S -5.45481107812500 0.693119259375000 5.91881665937500 
 S -6.04534907812500 4.05126425937500 5.52302865937500 
 S -2.45646407812500 1.07903025937500 3.23541965937500 
 S -2.93154807812500 4.48732225937500 2.83423665937500 
 S -3.40116507812500 2.19698625937500 7.01043365937500 
 S -3.87774307812500 5.35484025937500 6.79491465937500 
