16

 C -3.23236557812500 1.14206652812500 5.27257079062500 
 C -2.96353257812500 5.09026752812500 5.41539379062500 
 C -4.48479257812500 0.741873528125001 4.67921879062500 
 C -4.06311857812500 4.31579652812500 4.84122779062500 
 N -2.20478057812500 1.23078252812500 4.42253779062500 
 N -1.96206957812500 5.27267252812500 4.57398679062500 
 N -4.35974857812500 0.562012528125000 3.36886879062500 
 N -3.90893657812500 4.13366952812500 3.51761579062500 
 N -5.11122457812500 1.57203552812500 6.99370279062500 
 N -4.83825057812500 5.15458652812500 7.22716979062500 
 S -5.89752857812500 0.963157528125001 5.61791679062500 
 S -5.49684857812500 4.39798252812500 5.86850179062500 
 S -2.79725357812500 0.897175528125001 2.91220279062500 
 S -2.44355157812500 4.75026052812500 3.04928879062500 
 S -3.47623557812500 1.67648352812500 6.90923579062500 
 S -3.23361857812500 5.60726152812500 7.10076079062500 
