16

 C -3.19054014375000 1.33123580625000 5.56150562500000 
 C -3.16667514375000 4.85722080625000 5.67005062500000 
 C -4.49195914375000 0.866569806250000 5.06946762500000 
 C -4.38629814375000 4.49516080625000 4.99367062500000 
 N -2.20436714375000 1.34654780625000 4.69743062500000 
 N -2.18992814375000 5.08976780625000 4.83576562500000 
 N -4.38331814375000 0.379771806250001 3.82649262500000 
 N -4.27663314375000 4.13848680625000 3.72386062500000 
 N -4.80882114375000 1.21830980625000 7.55048362500000 
 N -4.90593214375000 4.87684380625000 7.50678062500000 
 S -5.77387114375000 0.853232806250000 6.24336362500000 
 S -5.64709314375000 4.29548280625000 6.14983362500000 
 S -2.85052514375000 0.761063806250000 3.32316562500000 
 S -2.68622314375000 4.52335880625000 3.38867462500000 
 S -3.23634514375000 1.71986080625000 7.25564562500000 
 S -3.27077514375000 5.17647180625000 7.36793462500000 
