16

 C -3.21312972500000 1.60794586250000 5.63234004062500 
 C -2.98220372500000 5.42715386250000 5.50958104062500 
 C -4.36722272500000 1.24349286250000 4.86160604062500 
 C -4.24981372500000 4.96900186250000 4.96269504062500 
 N -2.13840872500000 1.90729586250000 4.89093504062500 
 N -1.96395472500000 5.37676786250000 4.64212704062500 
 N -4.18446172500000 1.31456186250000 3.56394104062500 
 N -4.24332672500000 4.75047086250000 3.66352304062500 
 N -5.04047772500000 0.797499862500000 7.27357204062500 
 N -4.78049772500000 5.19264686250000 7.41568104062500 
 S -5.78371872500000 0.771907862500000 5.71559204062500 
 S -5.55951572500000 4.84003086250000 6.04794104062500 
 S -2.62708272500000 1.72702686250000 3.29681104062500 
 S -2.67769172500000 5.00458386250000 3.18121904062500 
 S -3.40444772500000 1.23825786250000 7.28682704062500 
 S -3.20681872500000 5.43338986250000 7.25146004062500 
