16

 C -3.07678502500000 1.30351441875000 5.62751385000000 
 C -3.32214502500000 5.36527441875000 5.31977885000000 
 C -4.18714402500000 0.640766418750000 4.97849785000000 
 C -4.32137602500000 4.44215441875000 4.85559285000000 
 N -2.01464102500000 1.50933141875000 4.87244585000000 
 N -2.32031802500000 5.56207241875000 4.46260885000000 
 N -3.98739202500000 0.396422418750000 3.70003285000000 
 N -3.99824702500000 3.87288541875000 3.68931985000000 
 N -4.89230002500000 1.07163241875000 7.44969885000000 
 N -5.09187402500000 5.08624741875000 7.29203385000000 
 S -5.49369402500000 0.289901418750000 6.07792485000000 
 S -5.56262902500000 4.14156341875000 5.98588385000000 
 S -2.49162102500000 0.972622418750000 3.32983285000000 
 S -2.62319702500000 4.63509341875000 3.13923885000000 
 S -3.34173302500000 1.61964441875000 7.42841685000000 
 S -3.63433902500000 5.88345841875000 7.02057085000000 
