16

 C -3.20931976250000 1.49047527812500 5.39142520625000 
 C -3.36316276250000 5.27453327812500 5.32520620625000 
 C -4.41098376250000 0.712120278125004 4.94486820625000 
 C -4.47598976250000 4.62930127812500 4.67808420625000 
 N -2.24470476250000 1.72995927812500 4.48154720625000 
 N -2.34468476250000 5.62449127812500 4.54015420625000 
 N -4.35534576250000 0.422810278125004 3.63350920625000 
 N -4.32192976250000 4.52197627812500 3.37709120625000 
 N -4.71174476250000 1.17962227812500 7.41268920625000 
 N -5.12051976250000 4.76005327812500 7.23744920625000 
 S -5.56962576250000 0.527506278125005 6.16977120625000 
 S -5.75805976250000 4.08126327812500 5.83903520625000 
 S -2.91929376250000 0.974439278125004 3.12979520625000 
 S -2.82048476250000 5.15145327812500 2.99926820625000 
 S -3.30105576250000 1.94637027812500 7.04392820625000 
 S -3.64528276250000 5.55001427812500 7.03801320625000 
