16

 C -3.27062510000000 1.55730278125000 5.48758399687500 
 C -3.08442610000000 5.17508878125000 5.68928099687500 
 C -4.54602910000000 1.11672678125000 4.94104499687500 
 C -4.27943210000000 4.67973478125000 5.10183399687500 
 N -2.34638810000000 1.81287278125000 4.53768199687500 
 N -2.03821110000000 5.26549278125000 4.82958199687500 
 N -4.59570110000000 1.07244078125000 3.59743499687500 
 N -4.23299910000000 4.65166978125000 3.75211799687500 
 N -4.83489110000000 1.12614478125000 7.47852999687500 
 N -4.88320410000000 5.11430578125000 7.51738599687500 
 S -5.72498310000000 0.999186781250000 6.14533099687500 
 S -5.57582310000000 4.41568878125000 6.12420599687500 
 S -3.07273310000000 1.38932278125000 3.07719099687500 
 S -2.66904510000000 5.02040578125000 3.34607099687500 
 S -3.23886710000000 1.70798778125000 7.28779299687500 
 S -3.22589810000000 5.45488378125000 7.42368299687500 
