16

 C -2.85971681875000 1.75682104062500 5.68849547812500 
 C -3.11179581875000 5.24286504062500 5.69678547812500 
 C -4.17656381875000 1.63100004062500 5.08836647812500 
 C -4.41232581875000 4.94667504062500 5.13223147812500 
 N -1.87584781875000 1.73966404062500 4.79413947812500 
 N -2.12195681875000 5.33098004062500 4.80090747812500 
 N -4.10392981875000 1.62661504062500 3.78682647812500 
 N -4.35580581875000 4.77692704062500 3.81731747812500 
 N -4.59215981875000 1.58663004062500 7.61836647812500 
 N -4.83485481875000 5.24624104062500 7.63278947812500 
 S -5.46539781875000 1.42631604062500 6.26164647812500 
 S -5.68870681875000 4.73270704062500 6.29396547812500 
 S -2.50576581875000 1.71464904062500 3.24920247812500 
 S -2.82469081875000 4.96674104062500 3.31974247812500 
 S -2.98451181875000 1.87851304062500 7.42874047812500 
 S -3.22569781875000 5.60790204062500 7.39362347812500 
