16

 C -3.16319619687500 1.68545080000000 5.40947033125000 
 C -3.67614919687500 5.01323880000000 5.02369833125000 
 C -4.12463019687500 0.730093800000002 4.91914133125000 
 C -4.72444219687500 4.21160380000000 4.38724733125000 
 N -2.13969419687500 1.87657780000000 4.55578933125000 
 N -2.64393219687500 5.19596980000000 4.23140533125000 
 N -3.94213419687500 0.291026800000003 3.68432233125000 
 N -4.50366619687500 3.94543980000000 3.10357433125000 
 N -4.85872719687500 1.36064280000000 7.40921033125000 
 N -5.39714719687500 4.78046280000000 6.82145333125000 
 S -5.53125719687500 0.526956800000002 6.13199733125000 
 S -5.99976019687500 3.91506780000000 5.56771333125000 
 S -2.58759219687500 1.09828380000000 3.15202633125000 
 S -2.98318319687500 4.59031080000000 2.78713233125000 
 S -3.39894719687500 2.11242580000000 7.17135733125000 
 S -3.85220319687500 5.21155180000000 6.74289133125000 
