16

 C -3.39476960312500 1.19261003437500 5.54152770312500 
 C -3.11107160312500 5.06473103437500 5.35723570312500 
 C -4.48057460312500 0.600899034374999 4.80760170312500 
 C -4.32374060312500 4.71324603437500 4.63300370312500 
 N -2.31322160312500 1.44247303437500 4.76841970312500 
 N -1.97037960312500 4.99078103437500 4.63607070312500 
 N -4.31578460312500 0.507656034374999 3.47490770312500 
 N -4.14316460312500 4.37833203437500 3.35727770312500 
 N -5.38007760312500 1.15188603437500 7.04652770312500 
 N -5.09984660312500 5.42251203437500 7.03111770312500 
 S -5.90672060312500 0.204653034374998 5.80924270312500 
 S -5.73934760312500 4.82233703437500 5.66672870312500 
 S -2.77605360312500 0.990063034374998 3.22302270312500 
 S -2.48028860312500 4.51651703437500 3.11724870312500 
 S -3.84602260312500 1.60508203437500 7.16614470312500 
 S -3.41074560312500 5.52897903437500 6.99926170312500 
