16

 C -3.13076848124999 1.69894290937500 5.56075376875000 
 C -3.15970348124999 5.01553590937500 5.51988776875000 
 C -4.45492348124999 1.56740190937500 5.03912876875000 
 C -4.40304848124999 4.67409590937500 4.86471476875000 
 N -2.20077948124999 1.73685990937500 4.62154576875000 
 N -2.14945448124999 5.34979590937500 4.71284276875000 
 N -4.55096548124999 1.42463690937500 3.72282676875000 
 N -4.28007948124999 4.59432690937500 3.54230376875000 
 N -4.72365448124999 1.60115990937500 7.55596976875000 
 N -4.77514648124999 4.52183690937500 7.42030676875000 
 S -5.68344448124999 1.50731190937500 6.22587676875000 
 S -5.70838048124999 4.38399090937500 6.05369976875000 
 S -2.94355848124999 1.61639890937500 3.18878276875000 
 S -2.68859148124999 5.10777290937500 3.16835876875000 
 S -3.07238748124999 1.61073190937500 7.27643076875000 
 S -3.17746148124999 4.83724290937500 7.24644476875000 
