16

 C -3.01815207812500 1.26586232500000 5.65758942187500 
 C -3.05248207812500 5.16977632500000 5.35739742187500 
 C -4.20404507812500 0.799053325000000 4.94504642187500 
 C -4.14193907812500 4.29575832500000 4.94902542187500 
 N -2.00038107812500 1.39635932500000 4.83024042187500 
 N -2.00005607812500 5.25853332500000 4.53757842187500 
 N -4.07020007812500 0.596411325000000 3.64991742187500 
 N -3.95090407812500 3.80784632500000 3.72043942187500 
 N -4.78329507812500 0.924281325000000 7.53294742187500 
 N -4.82209807812500 5.18231232500000 7.26913542187500 
 S -5.57167907812500 0.701378325000000 6.04996342187500 
 S -5.38736507812500 4.18840732500000 6.11768342187500 
 S -2.42062507812500 1.01279432500000 3.30993942187500 
 S -2.50274907812500 4.43533332500000 3.16227342187500 
 S -3.21579307812500 1.62083432500000 7.42206042187500 
 S -3.32435207812500 5.74853532500000 7.00863142187500 
