16

 C -3.15018031250000 1.56304566562500 5.49391809375000 
 C -3.61669531250000 4.86419466562500 5.03263309375000 
 C -4.28710631250000 0.791472665625001 5.00487709375000 
 C -4.76418131250000 4.28346666562500 4.41665709375000 
 N -2.16575231250000 1.81004566562500 4.62457109375000 
 N -2.62054931250000 5.21866466562500 4.23434809375000 
 N -4.03058531250000 0.349083665625001 3.75505209375000 
 N -4.51935431250000 3.97904266562500 3.14078209375000 
 N -4.88388031250000 1.37075766562500 7.42828509375000 
 N -5.42294231250000 4.68283566562500 6.87556209375000 
 S -5.52989331250000 0.467583665625001 6.18476909375000 
 S -6.02111331250000 3.82282766562500 5.53468809375000 
 S -2.61761931250000 1.10946666562500 3.16245309375000 
 S -3.04934231250000 4.58965366562500 2.71565009375000 
 S -3.38415531250000 2.01088366562500 7.11112709375000 
 S -3.83782831250000 5.23956066562500 6.71920009375000 
