16

 C -3.23798872812500 0.893183262499997 5.46015310000000 
 C -3.35278772812500 5.03667626250000 5.52327610000000 
 C -4.52908072812500 0.682523262499998 4.79225810000000 
 C -4.52407872812500 4.55850726250000 4.84177910000000 
 N -2.23025772812500 1.07455526250000 4.63697510000000 
 N -2.27194072812500 5.34041726250000 4.78707210000000 
 N -4.40113372812500 0.669052262499997 3.48307010000000 
 N -4.32283172812500 4.43728126250000 3.51667110000000 
 N -5.04789672812500 0.652921262499998 7.26253810000000 
 N -4.98498772812500 4.49894426250000 7.41873510000000 
 S -5.89282872812500 0.481596262499997 5.85446010000000 
 S -5.85813872812500 4.35681026250000 6.00783810000000 
 S -2.85455872812500 0.983367262499997 3.06878610000000 
 S -2.78430272812500 4.93976226250000 3.24610510000000 
 S -3.42765372812500 0.806493262499997 7.16400110000000 
 S -3.40316572812500 4.99489326250000 7.26561410000000 
