16

 C -3.63269203125000 1.10491248437500 5.66761932812500 
 C -2.98774503125000 4.99632648437500 5.36736532812500 
 C -4.80625903125000 0.573601484375003 4.93855432812500 
 C -4.21176803125000 4.48665348437500 4.82909932812500 
 N -2.69766203125000 1.57964548437500 4.80322932812500 
 N -2.05318603125000 5.12746148437500 4.42656832812500 
 N -4.65338303125000 0.456735484375003 3.61322532812500 
 N -4.17291403125000 4.13623648437500 3.56021932812500 
 N -5.54732303125000 0.610378484375003 7.41077532812500 
 N -4.72235603125000 4.95226848437500 7.29036032812500 
 S -6.20729603125000 0.152382484375003 5.96314132812500 
 S -5.53141603125000 4.27475548437500 5.99865032812500 
 S -3.18596803125000 1.05157848437500 3.29818632812500 
 S -2.66739103125000 4.50976848437500 2.99885932812500 
 S -3.96044503125000 1.17311748437500 7.39066632812500 
 S -3.17038103125000 5.44040448437500 7.07569232812500 
