16

 C -3.31900690312500 1.27761183437500 5.29458962187500 
 C -3.20459990312500 5.33645083437500 5.57976862187500 
 C -4.56196190312500 0.719760834374999 4.77078562187500 
 C -4.39644190312500 5.21536783437500 4.77326062187500 
 N -2.34671890312500 1.43857083437500 4.41983062187500 
 N -2.12593090312500 5.62485483437500 4.87052562187500 
 N -4.49317190312500 0.505437834374999 3.44512462187500 
 N -4.19752790312500 5.13081683437500 3.45661262187500 
 N -5.02377790312500 1.02222483437500 7.24893062187500 
 N -5.17296390312500 5.05584883437500 7.31649162187500 
 S -5.82579390312500 0.449903834374999 5.93308462187500 
 S -5.76489090312500 5.04110783437500 5.72168762187500 
 S -2.93323990312500 0.910133834374999 2.91396362187500 
 S -2.54634390312500 5.40357483437500 3.27439162187500 
 S -3.43756690312500 1.59200183437500 6.99606562187500 
 S -3.50098890312500 5.21295883437500 7.34270762187500 
