16

 C -3.43818652187500 1.29467667187500 5.44163533437500 
 C -3.21391852187500 5.10297067187500 5.85417733437500 
 C -4.65569352187500 0.889579671875000 4.74693433437500 
 C -4.47887252187500 4.78619067187500 5.17114433437500 
 N -2.42857052187500 1.55008867187500 4.63934833437500 
 N -2.26599652187500 5.43027867187500 5.02261433437500 
 N -4.49511452187500 0.796428671874999 3.42282133437500 
 N -4.40466752187500 4.76268067187500 3.85256433437500 
 N -5.22620552187500 0.997318671874999 7.25047333437500 
 N -4.95728152187500 4.71696467187500 7.67570233437500 
 S -5.83626852187500 0.383190671874999 5.77972533437500 
 S -5.72495352187500 4.34747367187500 6.25341333437500 
 S -2.88273252187500 1.25435167187500 3.13294433437500 
 S -2.88859952187500 5.20225767187500 3.48006933437500 
 S -3.58907452187500 1.26432267187500 7.19347933437500 
 S -3.37087052187500 5.27852467187500 7.61241233437500 
