16

 C -3.07075869062500 1.54940213750000 5.72181338750000 
 C -3.08394669062500 4.84856013750000 5.64961838750000 
 C -4.21668969062500 1.19118213749999 4.93828238750000 
 C -4.25335169062500 4.41887213749999 4.83364138750000 
 N -1.87645269062500 1.54926613750000 5.07723238750000 
 N -1.99741469062500 4.89483313749999 4.89396538750000 
 N -3.90112269062500 0.951569137499995 3.62212838750000 
 N -4.05952769062500 4.02915313750000 3.56204338750000 
 N -4.97449569062500 1.27782413750000 7.46398938750000 
 N -5.21044569062500 4.72438013749999 7.12780138750000 
 S -5.71013069062500 1.12379613749999 5.97369638750000 
 S -5.78554969062500 4.38361713750000 5.61084238750000 
 S -2.25261669062500 1.34224013749999 3.47478838750000 
 S -2.45452469062500 4.34232213750000 3.36791938750000 
 S -3.26236569062500 1.58009113749999 7.37882838750000 
 S -3.57422769062500 4.99662013749999 7.31888438750000 
