16

 C -3.40968622500000 1.36958172812500 5.52506667187500 
 C -2.87006122500000 5.25545772812500 5.44317667187500 
 C -4.48143522500000 0.582478728125003 4.94087067187500 
 C -4.12697722500000 4.91082072812500 4.82107767187500 
 N -2.42574222500000 1.75347172812500 4.69473367187500 
 N -1.88474222500000 5.30465172812500 4.56247567187500 
 N -4.23393922500000 0.364673728125003 3.60608167187500 
 N -4.13839322500000 4.73102472812500 3.50606567187500 
 N -5.15289322500000 1.19529172812500 7.44077067187500 
 N -4.80111122500000 5.04002072812500 7.30377167187500 
 S -5.78917322500000 0.270574728125003 6.12036267187500 
 S -5.48467822500000 4.77480772812500 5.84976067187500 
 S -2.73676422500000 1.01536572812500 3.29195567187500 
 S -2.53851522500000 4.95498972812500 3.10771367187500 
 S -3.62457522500000 1.86335272812500 7.17529167187500 
 S -3.15239022500000 5.41619972812500 7.25647967187500 
