16

 C -3.28144821562500 1.48655770625000 5.26900887812500 
 C -3.09343221562500 5.06639170625000 5.44196587812500 
 C -4.40498521562500 0.887938706250001 4.59573087812500 
 C -4.29565621562500 4.57703370625000 4.81461787812500 
 N -2.19440121562500 1.53117570625000 4.51056787812500 
 N -1.98209121562500 4.97232270625000 4.69534887812500 
 N -4.21629421562500 0.628261706250001 3.31298487812500 
 N -4.05420421562500 4.08648970625000 3.60758787812500 
 N -5.07614121562500 1.02701370625000 7.06996787812500 
 N -4.87242421562500 4.91613570625000 7.30859487812500 
 S -5.74780021562500 0.495738706250001 5.63610287812500 
 S -5.63964221562500 4.47528270625000 5.88981687812500 
 S -2.61349921562500 0.890622706250001 3.02665487812500 
 S -2.46591621562500 4.24228770625000 3.26780487812500 
 S -3.59079221562500 1.69472970625000 6.97587587812500 
 S -3.33237421562500 5.47007570625000 7.08615387812500 
