16

 C -2.96753660000000 1.23497318437500 5.57439026875000 
 C -2.90490460000000 5.14473618437500 5.64348026875000 
 C -4.15398160000000 0.861645184375001 4.84964526875000 
 C -4.06548960000000 4.52177418437500 5.04328926875000 
 N -1.90904260000000 1.41842618437500 4.75711626875000 
 N -1.92101760000000 5.44269318437500 4.77671426875000 
 N -4.01799160000000 0.543958184375001 3.57472426875000 
 N -3.99703760000000 4.32232918437500 3.74974326875000 
 N -4.81006560000000 0.979060184375000 7.28055926875000 
 N -4.68422360000000 4.64460118437500 7.46106826875000 
 S -5.53755060000000 0.662482184375000 5.82621026875000 
 S -5.46696360000000 4.34029518437500 6.02003426875000 
 S -2.42202660000000 0.828418184375001 3.28157726875000 
 S -2.46702260000000 4.87712718437500 3.30712926875000 
 S -3.20118460000000 1.29745018437500 7.28228326875000 
 S -3.19071360000000 5.36463718437500 7.34079326875000 
