16

 C -3.31782094687500 0.856955128124989 5.45660854687500 
 C -3.27119794687500 5.19632412812499 5.49084854687500 
 C -4.52439094687500 0.588085128124988 4.75963454687500 
 C -4.41569594687500 4.65252012812499 4.77583954687500 
 N -2.25963394687500 1.13454712812499 4.71612254687500 
 N -2.19819094687500 5.41772212812499 4.67589954687500 
 N -4.34451894687500 0.637501128124989 3.44623554687500 
 N -4.29915194687500 4.57625812812499 3.45300454687500 
 N -5.12063094687500 0.741751128124989 7.21997054687500 
 N -5.03115494687500 4.52816612812499 7.24949254687500 
 S -5.90044594687500 0.575538128124989 5.78031154687500 
 S -5.72682194687500 4.02712112812499 5.79482454687500 
 S -2.76910794687500 0.920919128124988 3.12711454687500 
 S -2.81247794687500 5.09970412812499 3.09930454687500 
 S -3.49863694687500 0.910776128124989 7.18264354687500 
 S -3.58265494687500 5.37331912812499 7.21282654687500 
