16

 C -3.08791473750000 1.42814293125000 5.51373129687500 
 C -3.41216273750000 5.19086293125000 5.12669829687500 
 C -4.22692073750000 0.903067931249997 4.86082329687500 
 C -4.42801473750000 4.35693993125000 4.53451729687500 
 N -2.00552973750000 1.50817193125000 4.74497529687500 
 N -2.30469073750000 5.35031293125000 4.42357929687500 
 N -4.01784473750000 0.719718931249997 3.55182129687500 
 N -4.06263873750000 3.94080593125000 3.31384229687500 
 N -4.85727373750000 1.09015893125000 7.28767529687500 
 N -5.18470773750000 4.98663593125000 7.01229529687500 
 S -5.61122973750000 0.729630931249997 5.88993229687500 
 S -5.72904673750000 4.11174293125000 5.69286529687500 
 S -2.46504773750000 1.14869993125000 3.17443529687500 
 S -2.58867973750000 4.56282693125000 3.00714629687500 
 S -3.32401773750000 1.74453593125000 7.22202829687500 
 S -3.75767673750000 5.82775693125000 6.70474629687500 
