16

 C -3.30532978437500 1.23762428750000 5.53327784687500 
 C -3.27643878437500 5.05537128750000 5.18490684687500 
 C -4.57701178437500 1.08687528750000 4.82284184687500 
 C -4.46231378437500 4.47227828750000 4.59571884687500 
 N -2.22942178437500 1.24952628750000 4.74235784687500 
 N -2.23304478437500 5.19096528750000 4.34295284687500 
 N -4.45612878437500 0.976742287499996 3.50606384687500 
 N -4.32631778437500 4.10001628750000 3.33121484687500 
 N -5.18287378437500 1.18537128750000 7.35334184687500 
 N -4.98890378437500 4.89242528750000 7.08934984687500 
 S -5.88800078437500 0.849486287499996 5.90936984687500 
 S -5.84234578437500 4.49430128750000 5.72477484687500 
 S -2.85243678437500 1.05707428750000 3.18001084687500 
 S -2.73971678437500 4.50598528750000 2.91965684687500 
 S -3.53864778437500 1.43711428750000 7.29731984687500 
 S -3.37700578437500 5.38203628750000 6.92324184687500 
