16

 C -3.17166063750000 1.15258603750000 5.54448642812500 
 C -3.34335563750000 4.78831903750000 5.41846142812500 
 C -4.23780463750000 0.553139037500002 4.81662342812500 
 C -4.61072563750000 4.69389803750000 4.78406142812500 
 N -2.17309463750000 1.59604203750000 4.78179842812500 
 N -2.35046763750000 4.87986003750000 4.54436442812500 
 N -4.15213963750000 0.646648037500002 3.49461442812500 
 N -4.59651063750000 4.65540003750000 3.45377042812500 
 N -5.09410363750000 0.680648037500002 7.30502442812500 
 N -5.09888763750000 4.80394403750000 7.25980842812500 
 S -5.63549763750000 7.453003750000198E-002 5.82712842812500 
 S -5.99131963750000 4.51618503750000 5.90060042812500 
 S -2.61394763750000 1.26942003750000 3.16004642812500 
 S -3.01374663750000 4.78457103750000 2.99085042812500 
 S -3.53472263750000 1.19189203750000 7.37256442812500 
 S -3.46430663750000 4.78197903750000 7.12215342812500 
