16

 C -3.29775055937500 1.07058984062500 5.42205928437500 
 C -3.25455655937500 5.17225584062500 5.33945128437500 
 C -4.54686955937500 0.769845840625000 4.69803628437500 
 C -4.32817555937500 4.53673684062500 4.65033328437500 
 N -2.16811355937500 1.12086584062500 4.71049828437500 
 N -2.30482055937500 5.61251784062500 4.54127028437500 
 N -4.36567055937500 0.653531840625000 3.39006328437500 
 N -4.26648955937500 4.52610584062500 3.30395828437500 
 N -5.16663955937500 0.795003840625000 7.27117028437500 
 N -5.09577555937500 4.66479684062500 7.14315928437500 
 S -5.92340055937500 0.448761840625000 5.79041528437500 
 S -5.55307455937500 3.90402184062500 5.71077628437500 
 S -2.70088055937500 0.925447840625000 3.15288628437500 
 S -2.77204355937500 5.23495084062500 3.03272828437500 
 S -3.53468055937500 1.05204284062500 7.16811228437500 
 S -3.61805655937500 5.35887184062500 7.04636128437500 
