16

 C -3.18063115312500 0.856019018749997 5.43261052812500 
 C -3.21540615312500 4.55079601875000 5.54055552812500 
 C -4.45370415312500 0.543541018749996 4.82347252812500 
 C -4.51520015312500 4.64386701875000 4.92983352812500 
 N -2.23728215312500 1.26282501875000 4.55321552812500 
 N -2.16911515312500 4.45633801875000 4.73740052812500 
 N -4.43042115312500 0.704636018749997 3.50254952812500 
 N -4.44462215312500 4.70348901875000 3.57687952812500 
 N -4.87046115312500 0.425265018749997 7.34029552812500 
 N -4.84346315312500 4.67741001875000 7.52226452812500 
 S -5.69702315312500 0.231759018749996 5.93804552812500 
 S -5.84394315312500 4.63078301875000 6.15093652812500 
 S -2.94215315312500 1.15776301875000 3.02688452812500 
 S -2.84677115312500 4.63959601875000 3.21579152812500 
 S -3.27570215312500 0.905370018749997 7.17387652812500 
 S -3.17114815312500 4.78711401875000 7.25892352812500 
