16

 C -3.11765709375000 1.50849888437500 5.70234317812500 
 C -3.00574209375000 4.61169088437500 5.47533917812500 
 C -4.40967609375000 1.12889988437500 5.07710217812500 
 C -4.23444109375000 4.19469788437500 4.86679117812500 
 N -2.10707109375000 1.61800488437500 4.85081417812500 
 N -2.01506209375000 4.80098288437500 4.55849517812500 
 N -4.24251409375000 0.850891884374996 3.78997417812500 
 N -4.12233209375000 3.90313988437500 3.57758617812500 
 N -4.81503209375000 1.41277988437500 7.63692917812500 
 N -4.89166909375000 4.48499488437500 7.34397717812500 
 S -5.66649409375000 1.11335788437500 6.24239117812500 
 S -5.58942009375000 4.13982488437500 5.88885517812500 
 S -2.62635109375000 1.18847388437500 3.39077117812500 
 S -2.61433909375000 4.30145188437500 3.08465517812500 
 S -3.20779109375000 1.70256888437500 7.42575517812500 
 S -3.26641309375000 4.62795688437500 7.21229417812500 
