16

 C -3.30540089062500 1.26513478437500 5.52582426562500 
 C -3.27670189062500 5.01545478437500 5.14069626562500 
 C -4.54542889062500 0.984532784374998 4.83995826562500 
 C -4.45972089062500 4.39481178437500 4.56829426562500 
 N -2.24419189062500 1.25217278437500 4.70399726562500 
 N -2.30074689062500 5.20099578437500 4.29284926562500 
 N -4.52526489062500 0.908901784374999 3.48501426562500 
 N -4.29458489062500 4.07159578437500 3.27394526562500 
 N -5.17111789062500 1.12632678437500 7.33355526562500 
 N -4.94500889062500 4.91403478437500 7.05295126562500 
 S -5.91273889062500 0.721977784374999 5.90637226562500 
 S -5.78981589062500 4.45786778437500 5.66957426562500 
 S -2.86254089062500 1.13353378437500 3.19049526562500 
 S -2.70032689062500 4.57650178437500 2.87978326562500 
 S -3.56343289062500 1.45381778437500 7.27959226562500 
 S -3.38643589062500 5.30453678437500 6.83506126562500 
