16

 C -2.92579214375000 1.64891627500000 5.76310982500000 
 C -3.13101814375000 5.33388527500000 5.70597182500000 
 C -4.16813414375000 1.41829227500000 5.13276182500000 
 C -4.36896714375000 4.87921427500000 5.11781282500000 
 N -1.90951914375000 1.79963627500000 4.90109082500000 
 N -2.13351014375000 5.36506527500000 4.81583182500000 
 N -4.15679814375000 1.56188427500000 3.79216382500000 
 N -4.37052114375000 4.76546427500000 3.79256382500000 
 N -4.67611214375000 1.65382227500000 7.62173782500000 
 N -4.84902914375000 5.26610627500000 7.64523282500000 
 S -5.46839214375000 1.46163527500000 6.17528082500000 
 S -5.62614114375000 4.81141927500000 6.23560482500000 
 S -2.61293514375000 1.83460327500000 3.40833382500000 
 S -2.85105714375000 5.05120427500000 3.30059982500000 
 S -2.99436414375000 1.80762727500000 7.48360982500000 
 S -3.18897214375000 5.56583427500000 7.42864682500000 
