16

 C -3.04102893124999 1.35818993437500 5.31100402187500 
 C -3.25612693124999 5.15614993437500 5.67524902187500 
 C -4.31438293124999 0.961895934375002 4.76923002187500 
 C -4.47145193124999 4.71705893437500 5.06272602187500 
 N -2.09433793124999 1.27447993437500 4.38196402187500 
 N -2.24982093124999 5.34675593437500 4.81427002187500 
 N -4.37898293124999 0.617074934375002 3.50836302187500 
 N -4.36173393124999 4.57918793437500 3.74598702187500 
 N -4.78282593124999 1.54665493437500 7.14734402187500 
 N -4.90503493124999 4.83740193437500 7.61862102187500 
 S -5.69414993124999 1.03261193437500 5.86356902187500 
 S -5.72784593124999 4.54599993437500 6.24409002187500 
 S -2.81240093124999 0.774197934375001 2.88282202187500 
 S -2.77745393124999 4.98006193437500 3.30159502187500 
 S -3.15721193124999 1.73673693437500 7.02518202187500 
 S -3.20544293124999 5.23763593437500 7.34540902187500 
