16

 C -3.15817760312500 1.21432361875000 5.42651210937500 
 C -3.05171560312500 4.71060261875000 5.55625510937500 
 C -4.28334360312500 0.636752618749999 4.72025010937500 
 C -4.31338560312500 4.38297561875000 4.87688010937500 
 N -2.08390960312500 1.48400061875000 4.67861910937500 
 N -2.00784060312500 4.80544461875000 4.73608210937500 
 N -4.05430060312500 0.381082618749999 3.42024810937500 
 N -4.14609260312500 4.08676061875000 3.58716410937500 
 N -5.02384460312500 1.06031461875000 7.20706210937500 
 N -4.91655060312500 5.08744261875000 7.26006410937500 
 S -5.69805160312500 0.360816618749999 5.82478910937500 
 S -5.68744460312500 4.44478761875000 5.90580310937500 
 S -2.55441360312500 1.04355061875000 3.14338210937500 
 S -2.55584460312500 4.43241061875000 3.20361110937500 
 S -3.48828260312500 1.69084861875000 7.09677710937500 
 S -3.29760160312500 5.44647661875000 7.15698710937500 
