16

 C -3.27818157500000 1.30252294062500 5.26929955625000 
 C -3.14435857500000 5.33775094062500 5.54639055625000 
 C -4.53844457500000 0.757449940624999 4.74760255625000 
 C -4.36637857500000 5.07889594062500 4.80067455625000 
 N -2.31931357500000 1.44248494062500 4.35409655625000 
 N -2.05429757500000 5.46653394062500 4.78889655625000 
 N -4.51956857500000 0.611586940624998 3.40923955625000 
 N -4.20527757500000 5.19481194062500 3.46845655625000 
 N -4.97325457500000 1.07331594062500 7.28493755625000 
 N -5.08826657500000 4.97444494062500 7.15570055625000 
 S -5.81240657500000 0.490750940624999 5.90801355625000 
 S -5.79166657500000 5.01964494062500 5.72355755625000 
 S -3.00658857500000 0.921574940624998 2.93075255625000 
 S -2.62348257500000 5.42931494062500 3.19821155625000 
 S -3.45693857500000 1.58143494062500 6.96660755625000 
 S -3.46140957500000 5.14541894062500 7.21779055625000 
