16

 C -3.01653103437500 1.30507787812500 5.58166962812500 
 C -3.04951703437500 5.11177487812500 5.59821762812500 
 C -4.17893103437500 0.714312878125001 5.00323962812500 
 C -4.18992303437500 4.38898487812500 5.01057162812500 
 N -1.93639703437500 1.35478287812500 4.80893562812500 
 N -2.07256303437500 5.37611587812500 4.73713262812500 
 N -3.97152003437500 0.392240878125001 3.74540262812500 
 N -3.99058803437500 4.02187387812500 3.75910362812500 
 N -4.91216703437500 1.31372487812500 7.39020262812500 
 N -4.81819303437500 4.82694087812500 7.46266762812500 
 S -5.57445903437500 0.669616878125001 6.00862062812500 
 S -5.57598503437500 4.40834687812500 6.05030662812500 
 S -2.40252103437500 0.725232878125001 3.29256562812500 
 S -2.50610203437500 4.58964787812500 3.30245762812500 
 S -3.24410603437500 1.60691487812500 7.28462762812500 
 S -3.19886303437500 5.36403987812500 7.34701362812500 
