16

 C -2.81086092187500 1.93672129062500 5.54028767812500 
 C -3.13402692187500 5.29122229062500 5.67611067812500 
 C -4.11963592187500 1.50677529062500 4.99801267812500 
 C -4.35605592187500 4.76405529062500 5.13267067812500 
 N -1.80766392187500 1.92631129062500 4.62554667812500 
 N -2.12438692187500 5.37584529062500 4.78831067812500 
 N -4.10063192187500 1.19094729062500 3.69117467812500 
 N -4.34382492187500 4.55150429062500 3.83380567812500 
 N -4.48334992187500 1.47387629062500 7.53024467812500 
 N -4.94952692187500 5.09537029062500 7.61057167812500 
 S -5.42346392187500 1.53310529062500 6.14243067812500 
 S -5.74844392187500 4.67880429062500 6.18467867812500 
 S -2.60790692187500 1.56945829062500 3.16018567812500 
 S -2.80141092187500 4.89252229062500 3.30472667812500 
 S -2.87966392187500 1.95612229062500 7.30734367812500 
 S -3.27837292187500 5.33317429062500 7.41806967812500 
