16

 C -3.31508327187500 1.39038975937500 5.51847975937500 
 C -3.42610527187500 5.06301275937500 5.19674175937500 
 C -4.49606927187500 0.848836759375001 4.93663475937500 
 C -4.63665427187500 4.64677275937500 4.54585975937500 
 N -2.31132427187500 1.60382275937500 4.64302575937500 
 N -2.40908927187500 5.33149175937500 4.37691075937500 
 N -4.45181627187500 0.546131759375001 3.62836675937500 
 N -4.42622127187500 4.34382375937500 3.28169275937500 
 N -5.02942127187500 0.907298759375001 7.53545475937500 
 N -5.11693627187500 4.60676675937500 7.08752575937500 
 S -5.79503327187500 0.633425759375001 6.05220875937500 
 S -5.85865327187500 4.19009075937500 5.64882975937500 
 S -2.94160827187500 1.06425675937500 3.16152075937500 
 S -2.90579227187500 4.83430275937500 2.82937075937500 
 S -3.53097227187500 1.62252875937500 7.28474975937500 
 S -3.56843527187500 5.13993075937500 6.97736375937500 
