16

 C -3.23036159062500 1.51005040312500 5.44557441250000 
 C -3.16164059062500 5.04507440312500 5.65528641250000 
 C -4.50247959062500 1.15735040312500 4.77795841250000 
 C -4.35339259062500 4.58702140312500 4.99511341250000 
 N -2.22578859062500 1.67197440312500 4.61153341250000 
 N -2.10844759062500 5.23390540312500 4.82156841250000 
 N -4.40044659062500 1.06087240312500 3.44305241250000 
 N -4.15447059062500 4.24341040312500 3.70809141250000 
 N -4.95699259062500 1.38427940312500 7.32649141250000 
 N -4.86640459062500 4.68856240312500 7.54357941250000 
 S -5.74319659062500 0.935947403124998 5.98688141250000 
 S -5.67321259062500 4.27313640312500 6.10181241250000 
 S -2.81364059062500 1.44176440312500 3.08103541250000 
 S -2.62709459062500 4.70606540312500 3.34668241250000 
 S -3.30346159062500 1.72175940312500 7.20908941250000 
 S -3.33662859062500 5.35801440312500 7.28162341250000 
