16

 C -3.06486532500000 1.00259876875000 5.58654331562500 
 C -3.32781432500000 4.87474876875000 5.21748231562500 
 C -4.36420832500000 0.724313768750005 4.99001231562500 
 C -4.50234732500000 4.30203276875000 4.62060631562500 
 N -2.09379232500000 1.18572376875000 4.74310131562500 
 N -2.36087332500000 5.20605676875000 4.37083531562500 
 N -4.28237432500000 0.632312768750005 3.69149731562500 
 N -4.36951032500000 4.00877476875000 3.32178031562500 
 N -4.89431132500000 0.770278768750004 7.50895131562500 
 N -5.16122332500000 4.73269976875000 7.01721931562500 
 S -5.67950932500000 0.541968768750005 6.08242631562500 
 S -5.85759132500000 4.02010076875001 5.71492731562500 
 S -2.75215732500000 1.07343876875000 3.18463431562500 
 S -2.88701432500000 4.60932276875000 2.85567431562500 
 S -3.28469332500000 0.894753768750005 7.30816231562500 
 S -3.60406132500000 5.27321176875000 6.91928031562500 
