16

 C -3.24388071250000 1.28710253750000 5.55864125000000 
 C -3.27558071250000 5.09529053750000 5.40438325000000 
 C -4.47598971250000 1.17970253750000 4.84296725000000 
 C -4.49678871250000 4.68712553750000 4.75377825000000 
 N -2.16298871250000 1.21831653750000 4.81125925000000 
 N -2.17906471250000 4.96647553750000 4.62600825000000 
 N -4.31605271250000 0.875173537499998 3.55757325000000 
 N -4.41483971250000 4.36541053750000 3.46885525000000 
 N -5.02604171250000 1.32967053750000 7.35310125000000 
 N -5.02081571250000 5.00527653750000 7.24840225000000 
 S -5.85321271250000 1.31020453750000 5.90946225000000 
 S -5.77308371250000 4.46905853750000 5.91173825000000 
 S -2.71961771250000 0.950807537499998 3.24182025000000 
 S -2.80503771250000 4.44368853750000 3.13728325000000 
 S -3.36737371250000 1.39361153750000 7.23458225000000 
 S -3.44499871250000 5.57456253750000 7.06949225000000 
