16

 C -3.07321188750000 1.38984565625000 5.48153211250000 
 C -3.39696288750000 5.22322065625000 5.13275411250000 
 C -4.23497588750000 0.872205656249999 4.80109811250000 
 C -4.42514588750000 4.39145665625000 4.54771111250000 
 N -1.99736888750000 1.56694065625000 4.74298911250000 
 N -2.29310088750000 5.40683765625000 4.38305311250000 
 N -4.04755688750000 0.644682656250000 3.51520911250000 
 N -4.04737188750000 3.90571565625000 3.35724311250000 
 N -4.81318088750000 1.12858065625000 7.29876211250000 
 N -5.18940588750000 4.95483265625000 6.99779311250000 
 S -5.62451188750000 0.697614656250000 5.93760111250000 
 S -5.74438288750000 4.10988465625000 5.69827511250000 
 S -2.54275188750000 1.14091965625000 3.20809711250000 
 S -2.60915488750000 4.60336365625000 2.96226211250000 
 S -3.26650188750000 1.75547865625000 7.19963411250000 
 S -3.75528388750000 5.80579065625000 6.76169411250000 
