16

 C -3.02386734062500 1.70795112812500 5.60742853750000 
 C -3.08192934062500 5.38992412812500 5.58868053750000 
 C -4.11692834062500 0.998800128124998 5.00335753750000 
 C -4.29153634062500 4.87124212812500 4.98164053750000 
 N -1.98890434062500 1.78852412812500 4.80247053750000 
 N -2.04434534062500 5.40828412812500 4.73630653750000 
 N -3.94413734062500 0.705680128124998 3.70776953750000 
 N -4.17921234062500 4.54634612812500 3.68481053750000 
 N -4.71500734062500 1.47999912812500 7.48256853750000 
 N -4.86032734062500 5.35254312812500 7.43936953750000 
 S -5.44289434062500 0.774221128124998 6.14142353750000 
 S -5.66254934062500 4.91965112812500 6.03502753750000 
 S -2.35437134062500 1.26830412812500 3.31970053750000 
 S -2.61626834062500 5.01026612812500 3.24099553750000 
 S -3.22077034062500 2.11753312812500 7.26054653750000 
 S -3.23218434062500 5.73684512812500 7.27112653750000 
