16

 C -3.00602191250000 1.40391697500000 5.52730730937500 
 C -3.33962891250000 5.13281097500000 5.16841130937500 
 C -4.16708291250000 1.05170197500000 4.79878130937500 
 C -4.44059991250000 4.37539997500000 4.58447230937500 
 N -1.87494791250000 1.56689897500000 4.79531230937500 
 N -2.23990291250000 5.26691797500000 4.45261330937500 
 N -4.01195491250000 0.830628975000002 3.47346430937500 
 N -4.18044291250000 4.00829497500000 3.34688830937500 
 N -5.00781491250000 1.08212097500000 7.32088630937500 
 N -5.21315091250000 5.07240697500000 6.88200830937500 
 S -5.60993591250000 0.788294975000002 5.78442530937500 
 S -5.74260391250000 4.10053697500000 5.67302330937500 
 S -2.39741491250000 1.13354397500000 3.23523330937500 
 S -2.54768891250000 4.45064097500000 3.05330430937500 
 S -3.45440891250000 1.69919797500000 7.26486930937500 
 S -3.77668491250000 5.86007797500000 6.67345730937500 
