16

 C -3.17871062500000 1.42423239374999 5.55394733750000 
 C -3.26269262500000 5.27338839374999 5.48622433750000 
 C -4.32550762500000 0.889365393749992 4.82022133750000 
 C -4.33993662500000 4.66875139374999 4.73275033750000 
 N -2.16440462500000 1.65566639374999 4.70104333750000 
 N -2.16362862500000 5.50605739374999 4.76694533750000 
 N -4.16224662500000 0.624970393749994 3.55825833750000 
 N -4.01484162500000 4.44128539374999 3.46452333750000 
 N -5.03681162500000 0.840001393749993 7.26113733750000 
 N -5.13793662500000 5.06560139374999 7.17279733750000 
 S -5.65989162500000 0.415690393749994 5.77796033750000 
 S -5.67335262500000 4.18657639374999 5.85793133750000 
 S -2.72261662500000 1.21987639374999 3.16483133750000 
 S -2.45961162500000 4.93741939374999 3.23477633750000 
 S -3.48531462500000 1.45198939374999 7.31844733750000 
 S -3.59642762500000 5.58717239374999 7.10647733750000 
