16

 C -3.10856068750001 1.59460823437500 5.54048448437500 
 C -3.06698268750001 5.03845523437500 5.54313548437500 
 C -4.43169368750001 1.55754623437500 4.98640648437500 
 C -4.30494268750001 4.73520823437500 4.89120648437500 
 N -2.19235568750001 1.71449823437500 4.60909848437500 
 N -2.06435368750001 5.33475723437500 4.71305948437500 
 N -4.51997768750001 1.63505923437500 3.67680448437500 
 N -4.29450868750001 4.84492723437500 3.56699248437500 
 N -4.82896368750001 1.56153923437500 7.49145048437500 
 N -4.76174968750001 4.46682023437500 7.43253048437500 
 S -5.71732568750001 1.47043623437500 6.10878248437500 
 S -5.59355268750001 4.33251823437500 6.00918548437500 
 S -2.90278768750001 1.61915123437500 3.07176448437500 
 S -2.72419668750001 5.18879723437500 3.17175148437500 
 S -3.14469368750001 1.66209623437500 7.28317448437500 
 S -3.14246068750001 4.92613923437500 7.25067548437500 
