16

 C -3.09687129687500 1.66504076562500 5.41052714062500 
 C -2.94563229687500 5.24629376562500 5.48970614062500 
 C -4.35997729687500 1.35540576562500 4.75251914062500 
 C -4.22888729687500 4.96092376562500 4.87699214062500 
 N -2.00318829687500 1.81312876562500 4.63964314062500 
 N -1.97980129687500 5.52657076562500 4.59725914062500 
 N -4.17075129687500 1.12820476562500 3.43639014062500 
 N -4.17398929687500 4.83979976562500 3.57101914062500 
 N -4.88260829687500 1.30162176562500 7.30591514062500 
 N -4.77299429687500 4.95329176562500 7.34097814062500 
 S -5.72446029687500 1.16320376562500 5.87547314062500 
 S -5.60503529687500 4.91109876562500 5.96012014062500 
 S -2.62792029687500 1.44403276562500 3.11388714062500 
 S -2.66479129687500 5.17836776562500 3.10569514062500 
 S -3.20595229687500 1.59469676562500 7.18205014062500 
 S -3.14819529687500 5.23540876562500 7.24704414062500 
