16

 C -2.93128358750000 1.64690315000000 5.76516869062500 
 C -3.13403358750000 5.33055415000000 5.70607969062500 
 C -4.16347758750000 1.40928715000000 5.13700369062500 
 C -4.36927458750000 4.87971115000000 5.11161569062500 
 N -1.92026558750000 1.80883715000000 4.90448969062500 
 N -2.14255758750000 5.37135315000000 4.81867969062500 
 N -4.15814858750000 1.56196915000000 3.79802369062500 
 N -4.36749658750000 4.76565915000000 3.78514869062500 
 N -4.67669658750000 1.65056615000000 7.61858369062500 
 N -4.84605558750000 5.26536215000000 7.64681569062500 
 S -5.46967258750000 1.46476115000000 6.17901069062500 
 S -5.62878658750000 4.81355415000000 6.23592269062500 
 S -2.60979158750000 1.83495715000000 3.40879869062500 
 S -2.84794658750000 5.05256315000000 3.30026469062500 
 S -2.99860158750000 1.80481315000000 7.48083169062500 
 S -3.18465658750000 5.56341215000000 7.43039869062500 
