16

 C -2.88905840937500 1.37873610625000 5.77006711562500 
 C -3.13862440937500 5.05976610625000 5.46969311562500 
 C -4.12664440937500 0.773708106250001 5.19881711562500 
 C -4.42800540937500 4.63896110625000 4.89984311562500 
 N -1.83258140937500 1.35167910625000 4.98719911562500 
 N -2.13991840937500 5.01824310625000 4.60885611562500 
 N -4.01001840937500 0.446910106250001 3.90177711562500 
 N -4.34590340937500 4.32063310625000 3.62885411562500 
 N -4.62834540937500 1.53519110625000 7.59381411562500 
 N -4.77748340937500 4.98133110625000 7.35790511562500 
 S -5.38885740937500 0.869978106250002 6.26868311562500 
 S -5.69075540937500 4.59729710625000 6.02944511562500 
 S -2.40626440937500 0.672074106250002 3.58044111562500 
 S -2.74678640937500 4.45532610625000 3.18123111562500 
 S -2.98735140937500 1.90959510625000 7.34274211562500 
 S -3.13748440937500 5.25735310625000 7.23880711562500 
