16

 C -2.91538857187500 2.05260392187499 5.39089710000000 
 C -3.00222557187500 5.15193292187499 5.43969110000000 
 C -4.06755757187500 1.43570092187499 4.80378510000000 
 C -4.23411857187500 4.91223992187499 4.74280310000000 
 N -1.90505457187500 2.30021992187499 4.58373410000000 
 N -1.89431157187500 5.17110992187499 4.68848110000000 
 N -3.91012257187500 1.24991392187499 3.48249310000000 
 N -4.13897457187500 4.89204092187499 3.40119210000000 
 N -4.62334357187500 1.84038292187499 7.33321010000000 
 N -4.96726057187500 4.97379892187499 7.21279210000000 
 S -5.43257657187500 1.46282592187499 5.96151610000000 
 S -5.58969557187500 4.54428192187499 5.71604210000000 
 S -2.39736457187500 1.73029992187499 3.04516810000000 
 S -2.54096957187500 5.08257192187499 3.08677510000000 
 S -3.03378257187500 2.27929492187499 7.09653010000000 
 S -3.37813357187500 5.31307992187499 7.14939810000000 
