16

 C -2.94851445312500 1.53123658750000 5.34044759375000 
 C -3.11576345312500 5.31635858749999 5.49801459375000 
 C -4.12204045312500 0.936425587499995 4.76724159375000 
 C -4.27550445312500 4.61733758749999 4.88020459375000 
 N -1.97702445312500 1.81193958750000 4.46882959375000 
 N -2.04861545312500 5.41916758750000 4.73670759375000 
 N -4.08821245312500 0.733329587499995 3.45545959375000 
 N -4.04205345312500 4.14371458749999 3.64528859375000 
 N -4.55987345312500 1.04310358750000 7.35413159375000 
 N -4.92989745312500 4.85788558749999 7.28709959375000 
 S -5.30354845312500 0.511790587499995 5.94887359375000 
 S -5.60489645312500 4.41538058750000 5.89605659375000 
 S -2.44952245312500 1.16125758750000 2.99934459375000 
 S -2.43703745312500 4.60801758750000 3.31374359375000 
 S -3.01743945312500 1.74772858750000 7.11621059375000 
 S -3.32890945312500 5.42255658750000 7.27600659375000 
