16

 C -3.19359255312500 1.30074927187500 5.35571454687500 
 C -3.16417755312500 4.98704627187500 5.45675454687500 
 C -4.29396555312500 0.565671271874998 4.84116654687500 
 C -4.48379555312500 4.67553827187500 4.94324954687500 
 N -2.22311655312500 1.59814127187500 4.50032454687500 
 N -2.18062955312500 5.05321627187500 4.55563754687500 
 N -4.18384455312500 0.306624271874998 3.54261154687500 
 N -4.45174855312500 4.40086427187500 3.65438454687500 
 N -4.87381155312500 1.23627827187500 7.36335254687500 
 N -4.79594955312500 4.84617527187500 7.48902354687500 
 S -5.56952255312500 0.363193271874998 6.14078454687500 
 S -5.75134355312500 4.67293527187500 6.13126954687500 
 S -2.70171255312500 0.877240271874998 3.02897754687500 
 S -2.91800255312500 4.71162927187500 3.08281954687500 
 S -3.39935855312500 1.89015327187500 7.01163754687500 
 S -3.25260555312500 5.33316127187500 7.11985454687500 
