16

 C -2.89400284062500 1.36429969062500 5.73160374375000 
 C -3.11475484062500 5.21502869062500 5.47224674375000 
 C -4.15464284062500 0.980321690625000 5.18431874375000 
 C -4.38066384062500 4.78882169062500 4.91737974375000 
 N -1.86900584062500 1.22677669062500 4.89381474375000 
 N -2.13013184062500 5.06807369062500 4.61741074375000 
 N -4.06628584062500 0.507647690625000 3.92989874375000 
 N -4.37407084062500 4.38798669062500 3.65014174375000 
 N -4.65409084062500 1.51948369062500 7.62903474375000 
 N -4.84382884062500 4.97670169062500 7.49504174375000 
 S -5.46391884062500 0.896417690625000 6.34931574375000 
 S -5.66055384062500 4.54299369062500 6.07764974375000 
 S -2.46569784062500 0.586597690625000 3.49940374375000 
 S -2.80847684062500 4.49371769062500 3.16434974375000 
 S -3.09783584062500 1.88621269062500 7.41909674375000 
 S -3.19919084062500 5.23986469062500 7.25237974375000 
