16

 C -3.11908290000000 1.18950489687500 5.75356177500000 
 C -2.81840590000000 4.65423889687500 5.50200177500000 
 C -4.45760090000000 0.929113896875000 5.28221577500000 
 C -4.07551890000000 4.51111289687500 4.84466277500000 
 N -2.14194990000000 0.920717896875001 4.85730077500000 
 N -1.83722690000000 4.79636989687500 4.58409677500000 
 N -4.50946490000000 0.579734896874999 4.00321677500000 
 N -4.08086690000000 4.47833989687500 3.51731577500000 
 N -4.54188790000000 1.74187689687500 7.79220977500000 
 N -4.63338290000000 4.60759389687500 7.29468977500000 
 S -5.64931590000000 1.35547989687500 6.54066077500000 
 S -5.45065090000000 4.57059589687500 5.88738477500000 
 S -2.93380290000000 0.621474896875000 3.45824177500000 
 S -2.51737290000000 4.77244689687500 3.02433577500000 
 S -2.93195190000000 1.75565089687500 7.28456377500000 
 S -3.04667490000000 4.86325689687500 7.23304177500000 
