16

 C -3.10889355937500 1.65522501562500 5.68914259687500 
 C -3.09316255937500 5.16638201562500 5.63258559687500 
 C -4.39948155937500 1.54294901562500 5.04233359687500 
 C -4.36612155937500 4.98270701562500 5.00761459687500 
 N -2.03546055937500 1.71032601562500 4.88686659687500 
 N -2.03528355937500 5.39616601562500 4.84483559687500 
 N -4.32891755937500 1.44571601562500 3.71062459687500 
 N -4.26356355937500 4.91443901562500 3.67866259687500 
 N -4.83139455937500 1.56163401562500 7.64030259687500 
 N -4.82807755937500 4.99074401562500 7.54964859687500 
 S -5.68301755937500 1.30726201562500 6.28409159687500 
 S -5.65237755937500 4.65940901562500 6.15518859687500 
 S -2.73082655937500 1.74767901562500 3.33642059687500 
 S -2.64202255937500 5.32048101562500 3.29933159687500 
 S -3.22751055937500 1.88970601562500 7.48380159687500 
 S -3.23315255937500 5.30621001562500 7.33369159687500 
