16

 C -3.36510395312500 1.43317426875000 5.21155844687500 
 C -3.10713995312500 5.22068126875000 5.36796644687500 
 C -4.52969095312500 0.923411268750000 4.52613344687500 
 C -4.20391695312500 4.48251826875000 4.82040344687500 
 N -2.28537095312500 1.37741726875000 4.46335044687500 
 N -2.02500895312500 5.18587526875000 4.61236244687500 
 N -4.29209095312500 0.609912268750000 3.25593944687500 
 N -4.00590695312500 4.03791326875000 3.57806844687500 
 N -5.10293595312500 1.16030226875000 7.00544744687500 
 N -4.84637895312500 5.00172826875000 7.26370644687500 
 S -5.88321895312500 0.722069268749999 5.57247344687500 
 S -5.60513595312500 4.45573626875000 5.84886744687500 
 S -2.65614095312500 0.885281268749999 2.94392144687500 
 S -2.41749995312500 4.34176826875000 3.24925444687500 
 S -3.55354395312500 1.72670326875000 6.86490144687500 
 S -3.26610095312500 5.51266826875000 7.08233044687500 
