16

 C -3.11212389687500 1.07735785312500 5.60203646875000 
 C -3.43434289687500 4.99966285312500 5.17818546875000 
 C -4.36030589687500 0.683315853124998 5.00774846875000 
 C -4.54308789687500 4.22681485312500 4.59570346875000 
 N -2.06581389687500 1.20991685312500 4.72522946875000 
 N -2.43468389687500 5.21999785312500 4.32590046875000 
 N -4.30170489687500 0.578181853124998 3.67417146875000 
 N -4.40408489687500 3.98514985312500 3.31848646875000 
 N -4.84646889687500 0.774515853124997 7.51405946875000 
 N -5.23096789687500 4.75867185312500 6.97028546875000 
 S -5.71588989687500 0.563907853124998 6.12786746875000 
 S -5.84288789687500 3.98753985312500 5.68059946875000 
 S -2.77711989687500 1.11612885312500 3.17371246875000 
 S -2.94667089687500 4.57266385312500 2.82809446875000 
 S -3.23308589687500 0.952354853124998 7.31870646875000 
 S -3.63139789687500 5.23234385312500 6.93621746875000 
