16

 C -3.21771095312500 1.04020896875000 5.55696457500000 
 C -3.19551295312500 5.10798096875000 5.69687057500000 
 C -4.48960395312500 0.857098968750002 4.89515857500000 
 C -4.38447395312500 4.51173896875000 5.08819757500000 
 N -2.19994395312500 1.22324796875000 4.72291757500000 
 N -2.22797895312500 5.50732796875000 4.86829957500000 
 N -4.38548795312500 0.782885968750001 3.58174357500000 
 N -4.19509295312500 4.31981096875000 3.78799657500000 
 N -5.00799795312500 0.503139968750002 7.39151457500000 
 N -4.86090395312500 4.41127396875000 7.54179857500000 
 S -5.80490395312500 0.537483968750002 5.89468657500000 
 S -5.71277095312500 4.15557596875000 6.15692157500000 
 S -2.76997395312500 0.926268968750001 3.17067257500000 
 S -2.75288595312500 5.00982096875000 3.35373157500000 
 S -3.43018995312500 0.975868968750001 7.29940157500000 
 S -3.49211295312500 5.32217596875000 7.41132357500000 
