16

 C -3.14754289375000 1.08217720625000 5.53780009375000 
 C -3.22133889375000 4.63098720625000 5.67940709375000 
 C -4.32749389375000 0.704295206250000 4.72992109375000 
 C -4.49267289375000 4.45753420625000 5.03111709375000 
 N -2.07271989375000 1.40978820625000 4.78155309375000 
 N -2.26172089375000 4.82901620625000 4.75874909375000 
 N -4.17983589375000 0.795881206250001 3.41369909375000 
 N -4.51659089375000 4.38566920625000 3.69614409375000 
 N -5.11039989375000 0.376502206250001 7.12990509375000 
 N -4.92946589375000 4.76319020625000 7.55783109375000 
 S -5.67726589375000 0.105240206250001 5.60431909375000 
 S -5.79142989375000 4.48232820625000 6.18775409375000 
 S -2.68662489375000 1.33225220625000 3.23705109375000 
 S -2.94120089375000 4.69862420625000 3.27214209375000 
 S -3.49698689375000 0.801302206250001 7.20765009375000 
 S -3.31166789375000 4.97887420625000 7.36250109375000 
