16

 C -3.37209733750000 1.44851505000000 5.51795474062500 
 C -3.42756433750000 5.21020205000000 5.10776474062500 
 C -4.61097833750000 0.924507050000000 4.94310174062500 
 C -4.52773033750000 4.45460405000000 4.56094174062500 
 N -2.36203733750000 1.62255305000000 4.66524774062500 
 N -2.35756733750000 5.39028705000000 4.32056974062500 
 N -4.47330833750000 0.622383050000000 3.66878274062500 
 N -4.37534233750000 4.28446905000000 3.26544474062500 
 N -4.96024333750000 1.16909605000000 7.41516774062500 
 N -5.11686833750000 4.72967605000000 7.04285974062500 
 S -5.90922533750000 0.766267050000000 6.07698474062500 
 S -5.75252833750000 3.97857005000000 5.68237974062500 
 S -2.96094033750000 1.05581705000000 3.24496574062500 
 S -2.80755533750000 4.71581505000000 2.89709074062500 
 S -3.39455933750000 1.67288805000000 7.21560174062500 
 S -3.53711733750000 5.31851405000000 6.84988374062500 
