16

 C -2.90529980937500 1.56715435625000 5.41371122187500 
 C -3.18854580937500 5.23169835625000 5.55646622187500 
 C -4.08063280937500 0.975396356249998 4.83425322187500 
 C -4.22662680937500 4.58805135625000 4.84369922187500 
 N -1.97912980937500 1.81147435625000 4.45589922187500 
 N -2.10574580937500 5.39791535625000 4.77427122187500 
 N -4.01172480937500 0.743556356249998 3.53514722187500 
 N -3.89354080937500 4.15059235625000 3.63317322187500 
 N -4.58451480937500 1.02310835625000 7.24642522187500 
 N -4.92938380937500 4.89627835625000 7.35091822187500 
 S -5.31318980937500 0.440897356249998 5.88027222187500 
 S -5.65279380937500 4.43661535625000 5.88797322187500 
 S -2.56689380937500 1.17636135625000 3.04256122187500 
 S -2.34632780937500 4.64217235625000 3.36891922187500 
 S -3.09766580937500 1.71851335625000 7.15165322187500 
 S -3.38437880937500 5.42669235625000 7.24717422187500 
