16

 C -3.50135667500000 1.41181559375000 5.36495466250000 
 C -3.31469667500000 5.04516159375000 5.77286466250000 
 C -4.65657267500000 0.953197593750002 4.55480966250000 
 C -4.57403467500000 4.65940159375000 5.14779866250000 
 N -2.42171167500000 1.65166259375000 4.66254566250000 
 N -2.26423167500000 5.16305359375000 4.96807066250000 
 N -4.41480067500000 0.937055593750002 3.28177766250000 
 N -4.43841367500000 4.61923959375000 3.83531066250000 
 N -5.28744467500000 0.841643593750002 7.17643766250000 
 N -5.04315767500000 4.95656959375000 7.62294066250000 
 S -5.95427767500000 0.603645593750002 5.69867666250000 
 S -5.89472667500000 4.50427459375000 6.27431766250000 
 S -2.90344467500000 1.59279459375000 3.02939966250000 
 S -2.86486467500000 4.86822259375000 3.44717866250000 
 S -3.77644367500000 1.60091759375000 7.06102966250000 
 S -3.42840867500000 5.16937859375000 7.51316766250000 
