16

 C -3.12689595625000 1.44634551250000 5.58054153437500 
 C -3.31515395625000 5.07669951250000 5.27552653437500 
 C -4.23223295625000 1.06637051250000 4.78087053437500 
 C -4.40984095625000 4.37654251250000 4.61509353437500 
 N -1.96882695625000 1.64500151250000 4.91048153437500 
 N -2.25009695625000 5.24051151250000 4.49199953437500 
 N -3.92387095625000 0.779693512499995 3.49779553437500 
 N -4.09147895625000 3.91475351250000 3.38964453437500 
 N -5.09632795625000 1.22390751250000 7.25450553437500 
 N -5.30051895625000 5.34155751250000 6.81757553437500 
 S -5.73087095625000 0.945670512499996 5.77424353437500 
 S -5.85881595625000 4.38580351250000 5.60258453437500 
 S -2.37534395625000 1.19855851250000 3.33516153437500 
 S -2.58767695625000 4.41373751250000 3.10690053437500 
 S -3.46113995625000 1.64490151250000 7.26280253437500 
 S -3.69371595625000 5.66171251250000 6.86221953437500 
