16

 C -3.38213782500000 1.52384232187500 5.48183725312500 
 C -3.06142882500000 5.35907632187500 5.62986225312500 
 C -4.52665582500000 0.999973321874996 4.73266125312500 
 C -4.32915882500000 4.97653132187500 5.02350725312500 
 N -2.23176182500000 1.65497632187500 4.73968525312500 
 N -2.11659482500000 5.62774532187500 4.74677025312500 
 N -4.25572082500000 0.714534321874996 3.43373425312500 
 N -4.32047682500000 4.89314632187500 3.69794425312500 
 N -5.32447282500000 1.41178132187500 7.18628425312500 
 N -4.82904682500000 5.08802832187500 7.52910725312500 
 S -5.83105082500000 0.735553321874995 5.73633025312500 
 S -5.56748582500000 4.64384832187500 6.14508325312500 
 S -2.78618882500000 1.34352032187500 3.16504925312500 
 S -2.73971582500000 5.35517632187500 3.23697025312500 
 S -3.78199282500000 2.00747632187500 7.12255825312500 
 S -3.21895182500000 5.54477332187500 7.39569425312500 
