16

 C -3.38626184687500 1.46550104687500 5.74151986562500 
 C -3.29539284687500 5.18489404687500 5.40769586562500 
 C -4.43384784687500 0.888649046874998 4.96820686562500 
 C -4.50605184687500 4.72364604687500 4.78329886562500 
 N -2.22007884687500 1.55083104687500 5.05351286562500 
 N -2.33304384687500 5.35089404687500 4.52028786562500 
 N -4.14660684687500 0.668337046874998 3.67157886562500 
 N -4.48277484687500 4.58729504687500 3.47792486562500 
 N -5.35753584687500 1.03320104687500 7.39961486562500 
 N -5.05045484687500 4.91368204687500 7.32492686562500 
 S -5.93258684687500 0.580828046874998 5.90903686562500 
 S -5.77462284687500 4.42076404687500 5.87657186562500 
 S -2.58981484687500 1.18012704687500 3.46867286562500 
 S -2.95712884687500 5.00922304687500 3.02164386562500 
 S -3.81685784687500 1.56176604687500 7.50482886562500 
 S -3.42155184687500 5.29965504687500 7.17689086562500 
