16

 C -3.24498557187500 1.54767153750000 5.63068098750000 
 C -3.54994557187500 5.33429853750000 5.56859398750000 
 C -4.47347757187500 1.00546653750000 5.05465998750000 
 C -4.59123557187500 4.57576753750000 4.94895098750000 
 N -2.29167057187500 1.73921453750000 4.74873898750000 
 N -2.50008057187500 5.67535953750000 4.77700998750000 
 N -4.41932957187500 0.849346537500002 3.73867798750000 
 N -4.43762457187500 4.46124153750000 3.62483798750000 
 N -4.91196457187500 1.10487353750000 7.57655698750000 
 N -5.26467657187500 4.77084953750000 7.51250998750000 
 S -5.76356757187500 0.713541537500001 6.20054298750000 
 S -5.91824557187500 4.25598153750000 6.04493298750000 
 S -2.94126857187500 1.48217153750000 3.23665698750000 
 S -2.97022657187500 5.16177353750000 3.22304998750000 
 S -3.36885357187500 1.50237053750000 7.33031598750000 
 S -3.70814957187500 5.46066553750000 7.34058498750000 
