16

 C -2.84955859375000 1.28476969687500 5.77820244062500 
 C -3.00926459375000 4.63858669687500 5.51143144062500 
 C -4.08390559375000 1.11663469687500 5.09706944062500 
 C -4.24488759375000 4.36452069687500 4.73622144062500 
 N -1.77084959375000 1.18723369687500 4.91682644062500 
 N -1.84259059375000 4.68520169687500 4.84913244062500 
 N -4.00149259375000 1.04310969687500 3.75889044062500 
 N -3.93721059375000 4.20619669687500 3.46167844062500 
 N -4.80123259375000 1.58229669687500 7.48940344062500 
 N -5.02446759375000 4.87715369687500 7.16025644062500 
 S -5.52254259375000 1.27441969687500 6.02439744062500 
 S -5.73177859375000 4.34373069687500 5.81978444062500 
 S -2.47096059375000 1.06350769687500 3.40697244062500 
 S -2.29232959375000 4.39280469687500 3.26710644062500 
 S -3.11009759375000 1.58522569687500 7.50572044062500 
 S -3.33813859375000 5.09861769687500 7.16229044062500 
