16

 C -3.35713745625000 1.48824668437500 5.52581238125000 
 C -3.41613945625000 5.21611968437500 5.18108638125000 
 C -4.53523345625000 0.875366684375001 4.98955438125000 
 C -4.55450945625000 4.57825968437500 4.53135038125000 
 N -2.36955345625000 1.57410468437500 4.66873438125000 
 N -2.39790945625000 5.37903368437500 4.35366838125000 
 N -4.46704445625000 0.582795684375000 3.70788138125000 
 N -4.42191045625000 4.31233968437500 3.21451138125000 
 N -4.98955145625000 1.01274368437500 7.41781538125000 
 N -5.10502545625000 4.66714268437500 7.03663938125000 
 S -5.83719745625000 0.725231684375000 6.06281538125000 
 S -5.80084445625000 4.06225668437500 5.67293838125000 
 S -2.96730045625000 1.06432268437500 3.21293038125000 
 S -2.85177445625000 4.75547768437500 2.86430138125000 
 S -3.46716045625000 1.64307768437500 7.21613138125000 
 S -3.55774545625000 5.22489968437500 6.91642638125000 
