16

 C -3.06633867812500 1.40842695312501 5.43439932500000 
 C -3.46108667812500 5.16143795312501 5.36065032500000 
 C -4.35612867812500 1.02703495312501 4.95542932500000 
 C -4.63420667812500 4.55184895312501 4.84477932500000 
 N -2.09143767812500 1.35559895312501 4.50894132500000 
 N -2.49815167812500 5.48152095312501 4.55098632500000 
 N -4.38147167812500 0.745447953125006 3.65237132500000 
 N -4.47419967812500 4.39247495312501 3.53418032500000 
 N -4.84867067812500 1.12858395312501 7.44453132500000 
 N -4.94404267812500 4.50436095312501 7.35336332500000 
 S -5.67476667812500 0.930351953125006 6.01040632500000 
 S -5.85265667812500 4.19344595312501 6.01982732500000 
 S -2.88497867812500 1.01625895312501 3.04533432500000 
 S -2.96947767812500 5.00449795312501 3.09097832500000 
 S -3.22308567812500 1.60470295312501 7.24008932500000 
 S -3.40552367812500 5.21169395312501 7.05920832500000 
