16

 C -3.08638130625000 1.27911678750000 5.52100185937500 
 C -3.07651430625000 5.34380478750000 5.43635085937500 
 C -4.31580530625000 0.994491787499999 4.82995685937500 
 C -4.30254830625000 4.99238078750000 4.77550785937500 
 N -1.96153830625000 1.29727578750000 4.73850385937500 
 N -2.10537930625000 5.71641678750000 4.59075785937500 
 N -4.15942730625000 0.677758787500000 3.53780885937500 
 N -4.21908530625000 4.86326478750000 3.47998485937500 
 N -4.91247330625000 0.992915787499999 7.34322085937500 
 N -4.84731030625000 4.94194178750000 7.25583785937500 
 S -5.69217530625000 0.692259787500000 5.91497985937500 
 S -5.59172830625000 4.40480678750000 5.84504985937500 
 S -2.61515730625000 0.987966787500000 3.15464585937500 
 S -2.67406930625000 5.37101078750000 3.08383785937500 
 S -3.27754330625000 1.41954478750000 7.23270485937500 
 S -3.31316630625000 5.53986478750000 7.09446585937500 
