16

 C -2.98544760625000 1.77143408125000 5.65714559375000 
 C -3.15712360625000 5.44635808125000 5.62978259375000 
 C -4.04170360625000 0.986533081250000 5.13593959375000 
 C -4.33487260625000 4.87218708125000 5.03251759375000 
 N -2.00728160625000 1.95501708125000 4.77737759375000 
 N -2.14651860625000 5.59645108125000 4.76351959375000 
 N -3.93958560625000 0.642640081250000 3.87912459375000 
 N -4.19896360625000 4.54292708125000 3.74333559375000 
 N -4.75535460625000 1.36779008125000 7.47351159375000 
 N -4.86545360625000 5.30903708125000 7.53040759375000 
 S -5.41814560625000 0.784452081250000 6.06373459375000 
 S -5.66032460625000 4.95461708125000 6.11687859375000 
 S -2.39710160625000 1.09564608125000 3.45225959375000 
 S -2.60956160625000 4.94660208125000 3.34081559375000 
 S -3.26056360625000 2.10823108125000 7.35146259375000 
 S -3.23858960625000 5.61847008125000 7.40545059375000 
