16

 C -3.30385800000000 0.894263303125003 5.48108282812500 
 C -3.24804000000000 5.20306130312500 5.44302582812500 
 C -4.53181300000000 0.648569303125003 4.74420882812500 
 C -4.39543600000000 4.64039330312500 4.78006782812500 
 N -2.26710000000000 1.13218230312500 4.70622782812500 
 N -2.22819300000000 5.44597430312500 4.66442882812500 
 N -4.32017100000000 0.648651303125003 3.44251882812500 
 N -4.27950000000000 4.57654330312500 3.46313582812500 
 N -5.13279600000000 0.756305303125003 7.23082882812500 
 N -5.08359500000000 4.56225430312500 7.19865582812500 
 S -5.92666300000000 0.551568303125003 5.79720882812500 
 S -5.66561400000000 3.98209630312500 5.75029182812500 
 S -2.73284900000000 0.912416303125003 3.12877382812500 
 S -2.81970600000000 5.13881230312500 3.05064082812500 
 S -3.51304000000000 0.946091303125002 7.14839282812500 
 S -3.59649100000000 5.39540630312500 7.17356082812500 
