16

 C -2.98397582500000 1.52986909062500 5.38148187187500 
 C -3.15908382500000 5.14308109062500 5.38227687187500 
 C -4.24698982500000 1.07591309062500 4.64301087187500 
 C -4.31895682500000 4.50092109062500 4.86619587187500 
 N -1.90436082500000 1.67609409062500 4.63059487187500 
 N -2.09772382500000 5.36706309062500 4.60523887187500 
 N -4.03902282500000 1.01282209062500 3.34232087187500 
 N -4.17284782500000 4.24827109062500 3.56969387187500 
 N -4.80881282500000 1.21657609062500 7.15244287187500 
 N -4.74604682500000 4.69934609062500 7.38189287187500 
 S -5.58086482500000 1.02700009062500 5.69552987187500 
 S -5.59038282500000 4.23390309062500 6.03024687187500 
 S -2.39478782500000 1.23095709062500 3.06573787187500 
 S -2.63283282500000 4.74465709062500 3.12431487187500 
 S -3.20520582500000 1.67262309062500 7.07202187187500 
 S -3.23636882500000 5.28049409062500 7.06842287187500 
