16

 C -2.84231065312500 1.80979197812500 5.37048526875000 
 C -3.14940365312500 5.20715497812500 5.47856326875000 
 C -4.13057565312500 1.48549997812500 4.75979826875000 
 C -4.33177965312500 4.80083997812500 4.79864326875000 
 N -1.76611565312500 1.71483897812500 4.55963626875000 
 N -2.02494465312500 5.27155997812500 4.71230826875000 
 N -4.09334165312500 1.31038397812500 3.42339326875000 
 N -4.13143465312500 4.48658297812500 3.51875626875000 
 N -4.63877465312500 1.71364397812500 7.32634726875000 
 N -4.96339865312500 4.93320397812500 7.32215826875000 
 S -5.45694765312500 1.38091497812500 5.89752626875000 
 S -5.70838765312500 4.65296397812500 5.88047826875000 
 S -2.46430765312500 1.39666297812500 3.07781226875000 
 S -2.49429465312500 4.84546797812500 3.23729526875000 
 S -3.03062365312500 2.09746397812500 7.13802426875000 
 S -3.33226565312500 5.27040397812500 7.18188726875000 
