16

 C -3.23367254687500 1.50889229687500 5.39932601875000 
 C -3.37528654687500 5.33772929687500 5.44715401875000 
 C -4.38812354687500 0.829536296875002 4.83741401875000 
 C -4.48451554687500 4.69601229687500 4.83031801875000 
 N -2.33765254687500 1.82947529687500 4.47071401875000 
 N -2.41152854687500 5.77965229687500 4.65564901875000 
 N -4.35615654687500 0.663744296875002 3.53390201875000 
 N -4.36669354687500 4.65738429687500 3.48889801875000 
 N -4.93393554687500 1.16593229687500 7.31271101875000 
 N -4.99993154687500 4.86118329687500 7.39821001875000 
 S -5.65327754687500 0.451399296875002 5.94388401875000 
 S -5.75978154687500 4.35037129687500 6.03362501875000 
 S -2.96124054687500 1.23967429687500 3.01017601875000 
 S -2.90144254687500 5.30496229687500 3.14543601875000 
 S -3.34803854687500 1.71600929687500 7.08205001875000 
 S -3.44999654687500 5.39313729687500 7.18255701875000 
