16

 C -3.08701702187500 1.64212513125000 5.45425053125000 
 C -3.01873402187500 5.27713713125000 5.50158053125000 
 C -4.33399702187501 1.41035113125000 4.79529653125000 
 C -4.26942602187500 4.95296813125000 4.85440353125000 
 N -2.10799102187500 1.71741413125000 4.56755353125000 
 N -2.02611802187500 5.44959813125000 4.64688753125000 
 N -4.27237402187500 1.18002913125000 3.49056553125000 
 N -4.21963702187500 4.81466013125000 3.53358553125000 
 N -4.89731602187500 1.30484513125000 7.32232653125000 
 N -4.74310402187500 4.95050413125000 7.40621253125000 
 S -5.69342302187500 1.22780413125000 5.83886153125000 
 S -5.59952002187500 4.83519913125000 5.93506653125000 
 S -2.63719002187500 1.51407713125000 3.00947053125000 
 S -2.64407402187500 5.25055813125000 3.11589253125000 
 S -3.28854102187500 1.57220113125000 7.20807553125000 
 S -3.07528802187500 5.14641113125000 7.23496453125000 
