16

 C -3.40454746875000 1.81935420312500 5.57532305625000 
 C -2.92907746875000 5.14885520312500 5.50734305625000 
 C -4.60132146875000 1.30479920312500 4.93144905625000 
 C -4.21199946875000 4.89420620312500 4.93684005625000 
 N -2.36204346875000 1.98853820312500 4.79781305625000 
 N -1.93848746875000 5.21979220312500 4.60140505625000 
 N -4.38546346875000 0.956810203125001 3.66451305625000 
 N -4.21838046875000 4.71612520312500 3.59514105625000 
 N -5.09629046875000 1.27856820312500 7.48006905625000 
 N -4.59677546875000 4.93652420312500 7.42395505625000 
 S -5.95808546875000 1.16171720312500 6.04880105625000 
 S -5.47275446875000 4.80734320312500 6.04105805625000 
 S -2.82265946875000 1.41844620312500 3.34145905625000 
 S -2.62496846875000 5.02333520312500 3.14362805625000 
 S -3.51482846875000 1.86231920312500 7.34820505625000 
 S -3.05087646875000 5.27502120312500 7.26556805625000 
