16

 C -3.44002075937500 1.52397406875000 5.51595193750000 
 C -3.04367475937500 5.13191906875000 5.41835193750000 
 C -4.42783975937500 0.686450068750004 4.95077693750000 
 C -4.24800575937500 4.75759306875000 4.71483793750000 
 N -2.42781775937500 1.83825706875000 4.67300993750000 
 N -1.92228275937500 5.17613306875000 4.69727293750000 
 N -4.13212875937500 0.224199068750004 3.71845693750000 
 N -3.99211075937500 4.47565406875000 3.40888493750000 
 N -5.24329775937500 0.861314068750003 7.36675693750000 
 N -4.85613775937500 4.99334106875000 7.21024393750000 
 S -5.81534175937500 0.276243068750004 5.83854393750000 
 S -5.65194275937500 4.97902206875000 5.80429193750000 
 S -2.76872875937500 0.964184068750004 3.31306293750000 
 S -2.32571075937500 4.74958706875000 3.22852793750000 
 S -3.86413975937500 1.76607206875000 7.22630493750000 
 S -3.28353075937500 5.47612406875000 7.05906693750000 
