16

 C -3.22616480000000 1.40835519375000 5.67388096562500 
 C -3.33551580000000 5.14109919375000 5.40435496562500 
 C -4.35237280000000 0.848009193750001 4.98945496562500 
 C -4.56131180000000 4.69134219375000 4.78114196562500 
 N -2.20465180000000 1.67993219375000 4.89134496562500 
 N -2.29083280000000 5.38272619375000 4.58626096562500 
 N -4.20609980000000 0.766953193750001 3.68229696562500 
 N -4.46293980000000 4.76966219375000 3.44843996562500 
 N -5.09272180000000 1.17266819375000 7.35967996562500 
 N -5.07455080000000 4.88844619375000 7.28582296562500 
 S -5.73470480000000 0.585460193750001 5.93256096562500 
 S -5.89445880000000 4.40154319375000 5.89304296562500 
 S -2.64148080000000 1.16666219375000 3.41056196562500 
 S -2.87004280000000 5.16910419375000 3.07490496562500 
 S -3.51531780000000 1.59730719375000 7.37093896562500 
 S -3.49372180000000 5.27668619375000 7.10188596562500 
