16

 C -3.22154963125000 1.56804026875000 5.60500126562500 
 C -2.98768363125000 5.39762226875000 5.57872526562500 
 C -4.38931163125000 1.30024926875000 4.79636126562500 
 C -4.23963163125000 5.03161526875000 5.01191726562500 
 N -2.13745363125000 1.85436226875000 4.90762626562500 
 N -1.97820463125000 5.42057026875000 4.67764126562500 
 N -4.20388163125000 1.21181126875000 3.47462526562500 
 N -4.21651763125000 4.79508226875000 3.71203026562500 
 N -5.02828963125000 0.693849268750000 7.19976826562500 
 N -4.78613863125000 5.10007326875000 7.47486126562500 
 S -5.70505363125000 0.754835268750000 5.73091026562500 
 S -5.64687463125000 4.90635226875000 6.04756426562500 
 S -2.63824063125000 1.72453026875000 3.27249626562500 
 S -2.66816963125000 4.99144526875000 3.17977426562500 
 S -3.47217263125000 1.31278326875000 7.32677626562500 
 S -3.16910563125000 5.49733026875000 7.31090326562500 
