16

 C -3.10922506562500 1.28719303750001 5.43958572500000 
 C -2.87596906562500 5.20078703750001 5.88390172500000 
 C -4.33287706562500 0.867423037500005 4.75543272500000 
 C -4.02650106562500 4.73099503750001 5.15565172500000 
 N -2.14567906562500 1.74260303750000 4.65993272500000 
 N -1.82657606562500 5.35124903750001 5.07868972500000 
 N -4.25259306562500 0.962362037500005 3.45439872500000 
 N -3.92954206562500 4.66348703750001 3.82760672500000 
 N -4.89716806562500 0.775913037500005 7.30471472500000 
 N -4.78018206562500 5.00798903750001 7.62888372500000 
 S -5.63003606562500 0.560025037500005 5.86438672500000 
 S -5.37783606562500 4.43424603750001 6.15794272500000 
 S -2.68892406562500 1.48046603750001 3.04478472500000 
 S -2.31776706562500 5.00429603750001 3.48901972500000 
 S -3.29461406562500 1.21704903750001 7.20260172500000 
 S -3.13053006562500 5.43275703750000 7.61038772500000 
