16

 C -3.11462638125000 1.23146068437500 5.65022093750000 
 C -3.37880038125000 5.25919068437500 5.40058593750000 
 C -4.24847638125000 0.608359684374999 5.06137293750000 
 C -4.45920838125000 4.45538868437500 4.85147893750000 
 N -2.09666238125000 1.63071868437500 4.88186493750000 
 N -2.44221138125000 5.68792768437500 4.52347493750000 
 N -4.02342338125000 0.427830684374999 3.74897993750000 
 N -4.13221238125000 4.05562168437500 3.61711593750000 
 N -4.87629438125000 0.955848684374999 7.55774393750000 
 N -5.14745138125000 4.99657068437500 7.16379693750000 
 S -5.55660538125000 0.277999684374999 6.14338193750000 
 S -5.77236338125000 4.13101268437500 5.91951893750000 
 S -2.57676738125000 1.04713268437500 3.35306193750000 
 S -2.72077238125000 4.77376068437500 3.18379593750000 
 S -3.37926438125000 1.61574568437500 7.30632493750000 
 S -3.71622738125000 5.80587368437500 6.96916193750000 
