16

 C -2.99864877187500 1.63822683125000 5.43262240937500 
 C -3.10378577187500 5.18165683125000 5.65157940937500 
 C -4.30025077187500 1.35681783125000 4.93219240937500 
 C -4.24692777187500 4.69027883125000 4.94266940937500 
 N -2.05146377187500 1.88327883125000 4.53439540937500 
 N -2.05816777187500 5.53453583125000 4.91859140937500 
 N -4.25679677187500 1.16689483125000 3.61372940937500 
 N -4.01519977187500 4.59716583125000 3.64126740937500 
 N -4.46629177187500 1.24168583125000 7.39792640937500 
 N -4.84290577187500 4.78107183125000 7.44600840937500 
 S -5.54554677187500 1.20504183125000 6.09251140937500 
 S -5.62790677187500 4.49002783125000 6.02915040937500 
 S -2.64811977187500 1.32744083125000 3.12577240937500 
 S -2.47417977187500 5.08902983125000 3.39786840937500 
 S -2.88494577187500 1.64262083125000 7.12775940937500 
 S -3.26242777187500 5.33445783125000 7.34339840937500 
