16

 C -3.28630506250000 1.30775837500000 5.55614109375000 
 C -3.36132006250000 4.99468437500000 5.26992409375000 
 C -4.49962906250000 0.733633375000000 4.90568809375000 
 C -4.54968906250000 4.46038737500000 4.60082409375000 
 N -2.34078606250000 1.58478937500000 4.65117709375000 
 N -2.35804106250000 5.19946037500000 4.40023609375000 
 N -4.36885906250000 0.599468374999999 3.58612209375000 
 N -4.52054606250000 4.42920837500000 3.27370809375000 
 N -5.02354106250000 0.906676375000000 7.43503609375000 
 N -5.17232906250000 4.56155637500000 7.12139509375000 
 S -5.80284406250000 0.449113375000000 6.05566409375000 
 S -5.97908606250000 4.34701137500000 5.68127209375000 
 S -2.84412606250000 1.09184637500000 3.14751809375000 
 S -2.97060906250000 4.93079737500000 2.88854809375000 
 S -3.51409106250000 1.56961337500000 7.32436809375000 
 S -3.54684306250000 5.05242537500000 6.96282609375000 
