16

 C -3.10037125312500 1.27464672812500 5.50943461875000 
 C -3.26810825312500 5.04907072812500 5.48315361875000 
 C -4.37706625312500 1.06275772812500 4.85370261875000 
 C -4.49519925312500 4.66502472812500 4.83382461875000 
 N -2.04001825312500 1.24967972812500 4.69245861875000 
 N -2.20906125312500 4.96583572812500 4.65480861875000 
 N -4.31881325312500 0.872729728124998 3.52253761875000 
 N -4.37887725312500 4.41317172812500 3.53952661875000 
 N -4.98945825312500 1.40271072812500 7.36397061875000 
 N -5.01661225312500 5.12198872812500 7.32506361875000 
 S -5.72722825312500 1.48737872812500 5.89833961875000 
 S -5.82345925312500 4.47151872812500 6.00163161875000 
 S -2.64582125312500 0.980485728124998 3.20557961875000 
 S -2.70828125312500 4.53045772812500 3.19662361875000 
 S -3.30955925312500 1.44327872812500 7.30300961875000 
 S -3.41645825312500 5.57106072812500 7.11481461875000 
