16

 C -2.89978557812500 1.37602918750000 5.74585731250000 
 C -3.11503657812500 5.15115618750000 5.47790131250000 
 C -4.22030357812500 1.02685818750000 5.16773831250000 
 C -4.43026357812500 4.84668918750000 4.93218631250000 
 N -1.89651957812500 1.15845018750000 4.86316031250000 
 N -2.08852357812500 5.10916218750000 4.58150931250000 
 N -4.08510057812500 0.521268187500000 3.94138031250000 
 N -4.37866557812500 4.42086318750000 3.67603431250000 
 N -4.72182357812500 1.50410218750000 7.68095531250000 
 N -4.84299957812500 4.98225918750000 7.53985631250000 
 S -5.51473357812500 0.918623187500001 6.35928431250000 
 S -5.65389757812500 4.52519518750000 6.10391631250000 
 S -2.49712657812500 0.573649187500000 3.45066431250000 
 S -2.81476157812500 4.54349518750000 3.17984831250000 
 S -3.10447257812500 1.88134218750000 7.44334431250000 
 S -3.24187457812500 5.25527618750000 7.23198231250000 
