16

 C -3.33106547500000 1.25836237187500 5.52792512812500 
 C -3.28325647500000 4.98613637187500 5.13548912812500 
 C -4.58295147500000 0.907960371874999 4.86094712812500 
 C -4.43015647500000 4.38104737187500 4.51450112812500 
 N -2.28768547500000 1.28979737187500 4.70594012812500 
 N -2.28241047500000 5.22139637187500 4.31367112812500 
 N -4.48324247500000 0.879270371874999 3.54510412812500 
 N -4.25909947500000 4.07513237187500 3.25944412812500 
 N -5.15834347500000 1.08819937187500 7.32967112812500 
 N -4.96526547500000 4.91500237187500 7.02053112812500 
 S -5.91967847500000 0.651820371874999 5.89223212812500 
 S -5.75598747500000 4.41899737187500 5.64033712812500 
 S -2.86472947500000 1.16495737187500 3.17192312812500 
 S -2.71280547500000 4.60536637187500 2.83328412812500 
 S -3.56073047500000 1.46130537187500 7.24287612812500 
 S -3.37768047500000 5.26776437187500 6.78455812812500 
