16

 C -3.38010800625000 1.66609057500000 5.59678601562500 
 C -3.09709600625000 5.17533957500000 5.61795201562500 
 C -4.62207400625000 1.26001357500000 4.95721401562500 
 C -4.37378600625000 4.98993957500000 5.03307201562500 
 N -2.35900400625000 1.76256857500000 4.73009501562500 
 N -2.04685600625000 5.16926757500000 4.81911901562500 
 N -4.54393800625000 1.12240357500000 3.63560001562500 
 N -4.32203500625000 4.82902757500000 3.71965601562500 
 N -5.26276200625000 1.45896657500000 7.33098701562500 
 N -4.64688400625000 5.24541357500000 7.66103001562500 
 S -5.95641100625000 0.969135574999998 5.93375601562500 
 S -5.54996700625000 4.95265757500000 6.35824101562500 
 S -2.99803800625000 1.51461857500000 3.15877001562500 
 S -2.72018100625000 4.97862657500000 3.29297001562500 
 S -3.62553400625000 1.77600557500000 7.35491201562500 
 S -2.99232900625000 5.26509957500000 7.31971401562500 
