16

 C -3.40175109687500 1.36551359062500 5.53022413125000 
 C -2.86778709687500 5.25784659062500 5.44333713125000 
 C -4.47503809687500 0.588287590625002 4.94271813125000 
 C -4.12906909687500 4.91193959062500 4.82512413125000 
 N -2.42105809687500 1.75253059062500 4.69723913125000 
 N -1.87974009687500 5.30969359062500 4.56166913125000 
 N -4.24076009687500 0.369221590625002 3.60386713125000 
 N -4.14114909687500 4.73824159062500 3.49691213125000 
 N -5.15536809687500 1.20011259062500 7.44182113125000 
 N -4.79492609687500 5.04497259062500 7.30339813125000 
 S -5.78518909687500 0.272407590625002 6.12498513125000 
 S -5.48021409687500 4.77007559062500 5.85916113125000 
 S -2.74140309687500 1.01473859062500 3.29024213125000 
 S -2.54247409687500 4.96130859062500 3.10727713125000 
 S -3.61862009687500 1.86408359062500 7.17273013125000 
 S -3.15398309687500 5.41333659062500 7.25342513125000 
