16

 C -3.13875619062500 1.23640713125000 5.71586588437500 
 C -3.00881519062500 4.74180713125000 5.48819088437500 
 C -4.37594319062501 0.847927131250001 5.11680888437500 
 C -4.21081519062500 4.26625813125000 4.83909588437500 
 N -2.14591119062500 1.21733513125000 4.88133088437500 
 N -1.95494719062500 4.74356913125000 4.66498388437500 
 N -4.28731619062500 0.584513131250000 3.82749388437500 
 N -4.10639319062500 4.09292013125000 3.51224088437500 
 N -4.79527019062501 1.05557013125000 7.64462488437500 
 N -4.94888919062500 4.82509213125000 7.21756988437500 
 S -5.64051019062500 0.758554131250000 6.29220588437500 
 S -5.54690719062500 4.04320713125000 5.91494788437500 
 S -2.70177419062501 0.853428131250000 3.35083488437500 
 S -2.53324019062500 4.31826713125000 3.11613788437500 
 S -3.27256519062500 1.60133513125000 7.37345788437500 
 S -3.34773619062500 5.24750513125000 7.13403388437500 
