16

 C -3.27073626250000 1.36302930625000 5.34982281250000 
 C -3.06785426250000 4.99135030625000 5.45188081250000 
 C -4.39334126250000 0.765359306250001 4.67817181250000 
 C -4.25023526250000 4.43251430625000 4.87924181250000 
 N -2.20527826250000 1.50901630625000 4.58614281250000 
 N -1.95849626250000 4.83832230625000 4.74181481250000 
 N -4.17220426250000 0.550322306250000 3.39284281250000 
 N -4.13082126250000 4.10257830625000 3.59338981250000 
 N -5.08566426250000 1.02745130625000 7.12556081250000 
 N -4.91123726250000 4.95818030625000 7.28672581250000 
 S -5.68782626250000 0.439650306250000 5.69304081250000 
 S -5.66269426250000 4.47510330625000 5.89005581250000 
 S -2.55679226250000 0.960157306250000 3.05315281250000 
 S -2.51731126250000 4.32859830625000 3.27666981250000 
 S -3.53905326250000 1.70375830625000 7.02649181250000 
 S -3.31696226250000 5.46129530625000 7.08486681250000 
