16

 C -3.20196042812500 1.46679352500000 5.58708517812500 
 C -3.35918842812500 5.29598152500000 5.67941117812500 
 C -4.49534842812500 1.08019252500000 5.02060117812500 
 C -4.51183142812500 4.70057852500000 5.03708517812500 
 N -2.30508742812500 1.80922752500000 4.68884717812500 
 N -2.48696742812500 5.74230952500000 4.78099717812500 
 N -4.48956842812500 1.02128952500000 3.69032117812500 
 N -4.41974942812500 4.50881152500000 3.74014317812500 
 N -4.97923342812500 1.09524152500000 7.58511317812500 
 N -5.11529242812500 4.75248452500000 7.48053017812500 
 S -5.79172242812500 0.821256525000000 6.18145717812500 
 S -5.86381042812500 4.29383852500000 6.08243917812500 
 S -3.00213042812500 1.48119552500000 3.16291917812500 
 S -2.97394242812500 5.16567952500000 3.31998817812500 
 S -3.32118442812500 1.54308952500000 7.38428217812500 
 S -3.63406742812500 5.39917952500000 7.34990617812500 
