16

 C -2.80196895312500 1.47948033125000 5.46257751250000 
 C -3.41304095312500 5.11037533125000 5.25775351250000 
 C -4.06356995312500 1.10590433125000 4.76456251250000 
 C -4.54549595312500 4.45669133125000 4.63172051250000 
 N -1.78195695312500 1.49484233125000 4.60403751250000 
 N -2.38264695312500 5.21969533125000 4.44773251250000 
 N -3.92243995312500 0.811129331250003 3.45681051250000 
 N -4.28592595312500 3.92763833125000 3.43154451250000 
 N -4.74475595312500 1.39279533125000 7.18259051250000 
 N -5.33020495312500 5.15107033125000 7.07143151250000 
 S -5.50086395312500 0.845632331250003 5.75845751250000 
 S -5.79141595312500 4.21217133125000 5.77199451250000 
 S -2.36366395312500 1.20281233125000 3.08372551250000 
 S -2.75541495312500 4.41529133125000 3.07377751250000 
 S -3.13104795312500 1.84539633125000 7.13364851250000 
 S -3.81497095312500 5.90360733125000 6.77539751250000 
