16

 C -3.08285159375000 1.05811825000000 5.60095410312500 
 C -3.39083259375000 4.94807725000000 5.18650710312500 
 C -4.37456359375000 0.694186250000000 5.00945710312500 
 C -4.52892859375000 4.25377825000000 4.60100810312500 
 N -2.07558359375000 1.19181725000000 4.73186910312500 
 N -2.40328559375000 5.21886325000000 4.35013010312500 
 N -4.28887059375000 0.595319250000001 3.69442710312500 
 N -4.39087559375000 3.99470425000000 3.33010410312500 
 N -4.86118459375000 0.774867250000001 7.51327610312500 
 N -5.20661659375000 4.74363825000000 6.97389810312500 
 S -5.69910159375000 0.556650250000001 6.11266110312500 
 S -5.84787159375000 4.00309625000000 5.69787010312500 
 S -2.76623659375000 1.10423825000000 3.16859610312500 
 S -2.92467259375000 4.58508025000000 2.83343610312500 
 S -3.26263459375000 0.924509250000001 7.30943810312500 
 S -3.62087359375000 5.24855525000000 6.93474710312500 
