16

 C -3.26910170937500 1.12069838437500 5.46814188437500 
 C -2.79953770937500 5.09409138437500 5.47819088437500 
 C -4.53253170937500 0.663638384375001 4.95363088437500 
 C -3.96490470937500 4.82126838437500 4.67446088437500 
 N -2.29797870937500 1.19166638437500 4.56788588437500 
 N -1.73672670937500 5.34685238437500 4.73348488437500 
 N -4.56065470937500 0.468608384375000 3.62515988437500 
 N -3.82637470937500 4.85755738437500 3.34960188437500 
 N -4.77698670937500 1.37918938437500 7.41990088437500 
 N -4.76553870937500 5.08982338437500 7.19677288437500 
 S -5.71032470937500 0.616049384375001 6.23341888437500 
 S -5.40387670937500 4.64887338437500 5.70228888437500 
 S -3.00617570937500 0.846121384375000 3.11771288437500 
 S -2.18594870937500 5.15947038437500 3.14447988437500 
 S -3.11873070937500 1.32112938437500 7.19330688437500 
 S -3.11301570937500 5.13263938437500 7.16997588437500 
