16

 C -3.09454431250000 1.35192631875000 5.51732098125000 
 C -3.63618831250000 4.91649531875000 5.02258298125000 
 C -4.34459131250000 0.870657318749996 5.00728998125000 
 C -4.73381531250000 4.15985431875000 4.46205798125000 
 N -2.09753131250000 1.45112031875000 4.65274698125000 
 N -2.61127131250000 5.16768831875000 4.20135798125000 
 N -4.30583131250000 0.592999318749996 3.71931098125000 
 N -4.55765631250000 3.94997631875000 3.14621198125000 
 N -4.76359831250000 0.859331318749996 7.59888298125000 
 N -5.30938831250000 4.54650531875000 7.00539198125000 
 S -5.62763731250000 0.473671318749996 6.22919698125000 
 S -6.00709531250000 3.81791631875000 5.60952998125000 
 S -2.83233631250000 1.07031331875000 3.19157298125000 
 S -3.05128131250000 4.59983831875000 2.75205098125000 
 S -3.27272131250000 1.56732431875000 7.30840498125000 
 S -3.81555231250000 5.26551631875000 6.72731698125000 
