16

 C -3.43511299687500 1.18682342187500 5.81832216250000 
 C -3.20329699687500 4.92465542187500 5.22742816250000 
 C -4.55144699687500 0.863164421874999 5.06526216250000 
 C -4.44847399687500 4.56594742187500 4.58901616250000 
 N -2.36167199687500 1.42522742187500 5.06104216250000 
 N -2.20100799687500 5.28044442187500 4.40883816250000 
 N -4.43877999687500 0.829751421874999 3.72829616250000 
 N -4.28147699687500 4.38791242187500 3.28220016250000 
 N -5.22550099687500 0.832163421874999 7.50891816250000 
 N -5.05602799687500 4.78912142187500 7.04835816250000 
 S -6.00313099687500 0.741608421874999 6.02486216250000 
 S -5.83706499687500 4.47677542187500 5.64089316250000 
 S -2.81328499687500 1.24013442187500 3.47872216250000 
 S -2.73541899687500 4.83631442187500 2.88063616250000 
 S -3.65303799687500 1.48196242187500 7.52221516250000 
 S -3.45992499687500 5.38932342187500 6.87080516250000 
