16

 C -3.21507022500000 1.45592205312500 5.37677126250000 
 C -3.33682422500000 5.26940005312500 5.38605326250000 
 C -4.41918222500000 0.764143053124999 4.90080626250000 
 C -4.50513222500000 4.67904905312500 4.75559826250000 
 N -2.28541622500000 1.72210805312500 4.47495926250000 
 N -2.35352222500000 5.62490705312500 4.55644926250000 
 N -4.40376122500000 0.421461053124999 3.63071926250000 
 N -4.42215322500000 4.61501505312500 3.41937326250000 
 N -4.71305722500000 1.16212005312500 7.43633626250000 
 N -5.06438822500000 4.73121405312500 7.22949826250000 
 S -5.59880822500000 0.513655053124999 6.19337126250000 
 S -5.70653122500000 4.11366205312500 5.80817826250000 
 S -2.88800022500000 1.00637905312500 3.11668826250000 
 S -2.85614922500000 5.17399105312500 3.01300626250000 
 S -3.34351722500000 1.96372405312500 7.02210426250000 
 S -3.65577322500000 5.53469005312500 7.08173626250000 
