16

 C -3.26875893125000 1.45717411875000 5.57217555000000 
 C -3.35407293125000 5.10432311875000 5.47796155000000 
 C -4.47612893125000 1.02638311875000 4.91012555000000 
 C -4.56186793125000 4.55231911875000 4.90934255000000 
 N -2.25035293125000 1.56178311875000 4.71267255000000 
 N -2.38652593125000 5.35640911875000 4.58030055000000 
 N -4.36479393125000 0.942989118749999 3.58814255000000 
 N -4.52554993125000 4.43684211875000 3.58414255000000 
 N -5.05030693125000 1.30272511875000 7.34034555000000 
 N -5.12792193125000 4.96131011875000 7.39619255000000 
 S -5.76793593125000 0.720170118750000 5.94446655000000 
 S -5.85700193125000 4.27587511875000 6.06943355000000 
 S -2.78003593125000 1.31494711875000 3.16546255000000 
 S -2.99368893125000 4.88580711875000 3.11548055000000 
 S -3.39536393125000 1.49997911875000 7.32142055000000 
 S -3.46864293125000 5.15758411875000 7.21855555000000 
