16

 C -2.90188820000000 2.05448937187500 5.56397168750000 
 C -3.17398920000000 5.36690437187500 5.31873768750000 
 C -4.10306420000000 1.61700637187500 4.94564368750000 
 C -4.28173320000000 4.78082237187500 4.63846768750000 
 N -1.93060620000000 2.21915737187500 4.69247768750000 
 N -2.17571220000000 5.77988937187500 4.56904168750000 
 N -4.05052020000000 1.54345537187500 3.65029968750000 
 N -4.10848620000000 4.65283937187500 3.31169268750000 
 N -4.60858020000000 1.69737837187500 7.38617068750000 
 N -4.94705920000000 5.04778337187500 7.15035468750000 
 S -5.44101720000000 1.41102337187500 5.98322068750000 
 S -5.63241620000000 4.60076037187500 5.74859768750000 
 S -2.49518720000000 1.83432137187500 3.15043168750000 
 S -2.61480820000000 5.28490337187500 2.99237168750000 
 S -3.04040920000000 2.21731337187500 7.26392068750000 
 S -3.29738620000000 5.33099337187500 7.01499368750000 
