16

 C -2.85254553437500 1.28451818437500 5.77562235000000 
 C -3.01406353437500 4.63836718437500 5.50432835000000 
 C -4.08453053437500 1.11112818437500 5.10194435000000 
 C -4.24906453437500 4.35988918437500 4.73778235000000 
 N -1.76777453437500 1.19987118437501 4.92091235000000 
 N -1.84319453437500 4.68859418437500 4.85404235000000 
 N -4.00368053437500 1.05099918437501 3.75579535000000 
 N -3.93976853437500 4.20138918437500 3.45819835000000 
 N -4.81522553437500 1.58949618437500 7.48903735000000 
 N -5.02880853437500 4.88105818437501 7.15463435000000 
 S -5.51700653437500 1.26738818437500 6.01550435000000 
 S -5.73676553437500 4.34292618437500 5.82448835000000 
 S -2.46826353437500 1.06919218437501 3.40592635000000 
 S -2.28810353437500 4.39219118437500 3.27233935000000 
 S -3.11362753437500 1.58320718437501 7.51066935000000 
 S -3.34259253437500 5.09564418437500 7.16360735000000 
