16

 C -3.42591416250000 1.22682978437500 5.52799549375000 
 C -3.08845216250000 5.08677678437500 5.37885349375000 
 C -4.52833216250000 0.590204784374999 4.80330749375000 
 C -4.27220916250000 4.76497778437500 4.68460349375000 
 N -2.33110116250000 1.44410878437500 4.82017949375000 
 N -1.95007316250000 5.00559278437500 4.67287749375000 
 N -4.29725916250000 0.473208784374998 3.49751649375000 
 N -4.11905816250000 4.39126378437500 3.37949149375000 
 N -5.38891916250000 1.12539378437500 7.05708649375000 
 N -5.13026416250000 5.45089578437500 7.01958549375000 
 S -5.89835116250000 0.201442784374999 5.83785349375000 
 S -5.71044616250000 4.81954978437500 5.62781249375000 
 S -2.74812616250000 1.02010678437500 3.23928549375000 
 S -2.49989016250000 4.50595878437500 3.11633849375000 
 S -3.85100816250000 1.61349478437500 7.13248949375000 
 S -3.41272216250000 5.51729578437500 7.00512449375000 
