16

 C -2.90729460312500 1.37386779062500 5.74163110312500 
 C -3.15943160312500 5.20226579062500 5.48584710312500 
 C -4.10316460312500 0.871793790625002 5.17798210312500 
 C -4.38307560312500 4.70615479062500 4.92840510312500 
 N -1.83342160312500 1.30011879062500 4.95829710312500 
 N -2.14102460312500 5.03329779062500 4.62139410312500 
 N -4.06073260312500 0.490322790625001 3.91322910312500 
 N -4.36516360312500 4.36237079062500 3.63359310312500 
 N -4.61620360312500 1.53059779062500 7.60095010312500 
 N -4.82434060312500 4.97206179062500 7.40587510312500 
 S -5.41869060312500 0.882276790625002 6.31490010312500 
 S -5.67072160312500 4.56851979062500 6.05570210312500 
 S -2.44545460312500 0.618112790625001 3.55206810312500 
 S -2.78290360312500 4.46380879062500 3.16086910312500 
 S -3.05632160312500 1.89383979062500 7.38118410312500 
 S -3.15556160312500 5.24095879062500 7.26385410312500 
