16

 C -3.02009446875000 1.71699485000000 5.60489615000000 
 C -3.08595746875000 5.39196585000000 5.58473915000000 
 C -4.11935446875000 1.00486685000000 5.00228015000000 
 C -4.29516846875000 4.86766385000000 4.98484315000000 
 N -1.98495646875000 1.78919685000000 4.79777415000000 
 N -2.04319046875000 5.41556085000000 4.73503515000000 
 N -3.93672346875000 0.696977849999999 3.70554115000000 
 N -4.17187546875000 4.54338385000000 3.68905815000000 
 N -4.71851246875000 1.47643685000000 7.48594415000000 
 N -4.86143746875000 5.35103785000000 7.44632715000000 
 S -5.44402146875000 0.774134849999999 6.14800315000000 
 S -5.66633446875000 4.92330485000000 6.03760115000000 
 S -2.35139846875000 1.26490385000000 3.31961215000000 
 S -2.61719546875000 5.00984585000000 3.24714915000000 
 S -3.22417646875000 2.11851285000000 7.26555415000000 
 S -3.23044646875000 5.73446585000000 7.26762215000000 
