16

 C -3.28473998750000 1.42302646562500 5.34758686250000 
 C -3.20325098750000 5.38219046562500 5.55297386250000 
 C -4.45546898750000 0.872144465624999 4.69499086250000 
 C -4.36950998750000 4.72253646562500 4.95112886250000 
 N -2.36341398750000 1.81157746562500 4.48589986250000 
 N -2.29768098750000 5.69675346562500 4.62663686250000 
 N -4.29830698750000 0.778131465624998 3.36378586250000 
 N -4.26945898750000 4.49387146562500 3.65421886250000 
 N -4.86571698750000 0.908530465624998 7.30520986250000 
 N -4.91909998750000 4.92159446562500 7.41321186250000 
 S -5.64400798750000 0.457248465624998 5.90017486250000 
 S -5.72329698750000 4.50531746562500 6.02281886250000 
 S -2.85900498750000 1.47484946562500 2.93889486250000 
 S -2.93035298750000 5.19618446562500 3.15068586250000 
 S -3.34065098750000 1.52482546562500 7.03810086250000 
 S -3.31840698750000 5.42702246562500 7.29901486250000 
