16

 C -3.36845341875000 1.56913198437500 5.45856426562500 
 C -3.13668341875000 5.49521398437500 5.63792226562500 
 C -4.45315741875000 0.939183984375000 4.79356526562500 
 C -4.26374141875000 4.86240398437500 5.00910826562500 
 N -2.31943141875000 1.71374698437500 4.68670726562500 
 N -2.13832941875000 5.78164498437500 4.77768326562500 
 N -4.29814141875000 0.728393984375000 3.46514726562500 
 N -4.25495741875000 4.89110498437500 3.64622226562500 
 N -5.26208041875000 1.28755198437500 7.21134626562500 
 N -4.75118241875000 5.11515498437500 7.49700326562500 
 S -5.90029241875000 0.729364984375000 5.77845426562500 
 S -5.54219041875000 4.62816098437500 6.11973526562500 
 S -2.68475941875000 1.17683898437500 3.16988026562500 
 S -2.71565541875000 5.45622698437500 3.25771726562500 
 S -3.71210441875000 1.92052698437500 7.17079526562500 
 S -3.20473541875000 5.59971598437500 7.37626326562500 
