16

 C -2.85693585937500 1.71246646875000 5.27967796875000 
 C -3.35533685937500 5.12082146875000 5.59071096875000 
 C -4.06363885937500 1.08861346875000 4.77964996875000 
 C -4.49115285937500 4.54211246875000 4.89883796875000 
 N -1.90926785937500 1.96500546875000 4.37645296875000 
 N -2.28046685937500 5.27650146875000 4.79868696875000 
 N -3.95624085937500 0.839389468750000 3.46031496875000 
 N -4.36974185937500 4.53778846875000 3.57068196875000 
 N -4.28028185937500 1.07255746875000 7.34436896875000 
 N -5.03648185937500 4.49878346875000 7.44380396875000 
 S -5.18224985937500 0.577114468750000 6.04174796875000 
 S -5.71709385937500 4.01290346875000 5.99840496875000 
 S -2.45184685937500 1.35575446875000 2.91954496875000 
 S -2.84006485937500 5.06115946875000 3.22085396875000 
 S -2.81713685937500 1.71000346875000 6.98443196875000 
 S -3.45813185937500 4.91871946875000 7.36246896875000 
