16

 C -3.30604922187500 1.33720168437500 5.49867931562500 
 C -3.41226722187500 5.03931368437500 5.19706431562500 
 C -4.48554322187500 0.836229684375001 4.92152631562500 
 C -4.62305122187500 4.61344168437500 4.57847231562500 
 N -2.30851422187500 1.61520568437500 4.64091731562500 
 N -2.40089522187500 5.29565068437500 4.38144231562500 
 N -4.42748122187500 0.552416684375001 3.60004631562500 
 N -4.44705422187500 4.36297268437500 3.28142631562500 
 N -5.02947522187500 0.896075684375000 7.53871631562500 
 N -5.14730522187500 4.58216568437500 7.10517531562500 
 S -5.79823622187500 0.586892684375000 6.05471431562500 
 S -5.89119822187500 4.23640268437500 5.65044531562500 
 S -2.92295522187500 1.06582168437500 3.15090631562500 
 S -2.92558822187500 4.86555968437500 2.83943631562500 
 S -3.53758622187500 1.61444668437500 7.31364131562500 
 S -3.56058122187500 5.11499868437500 6.98121531562500 
