16

 C -3.15074096562500 1.26697199375000 5.42221642812500 
 C -3.25865396562500 5.39053799375000 5.58409742812500 
 C -4.30182896562500 0.610072993749999 4.84681842812500 
 C -4.40179796562500 4.75714399375000 4.97620742812500 
 N -2.10434596562500 1.25232599375000 4.56256142812500 
 N -2.20932596562500 5.58091699375000 4.80802042812500 
 N -4.23994696562500 0.138931993750000 3.58979642812500 
 N -4.18336296562500 4.35026499375000 3.75856142812500 
 N -5.12354496562500 1.43177399375000 7.19637542812500 
 N -4.94777796562500 5.21228399375000 7.54311742812500 
 S -5.68978496562500 0.511644993749999 5.88867642812500 
 S -5.70887896562500 4.64052899375000 6.15998642812500 
 S -2.63460696562500 0.419772993750000 3.22313342812500 
 S -2.58289296562500 4.91126299375000 3.38448542812500 
 S -3.52348596562500 2.00638199375000 6.97816142812500 
 S -3.39929896562500 5.66281699375000 7.26656242812500 
