16

 C -3.01598251250000 1.47486515625000 5.75682383437500 
 C -3.09811851250000 5.14551115625000 5.83763483437500 
 C -4.21881351250000 0.992312156250001 5.08156883437500 
 C -4.32113251250000 4.94603315625000 5.10712483437500 
 N -2.02310051250000 1.68512915625000 4.94778783437500 
 N -2.03929851250000 5.25693015625000 5.05027983437500 
 N -4.09154351250000 0.841127156250002 3.78573383437500 
 N -4.20067551250000 4.88045215625000 3.76290183437500 
 N -4.92010151250000 1.41324715625000 7.44947183437500 
 N -4.87560851250000 5.12401215625000 7.61666583437500 
 S -5.53765451250000 0.716350156250002 6.04104983437500 
 S -5.66905251250000 4.76980815625000 6.21090683437500 
 S -2.52104951250000 1.21825515625000 3.40176983437500 
 S -2.53525251250000 5.15204015625000 3.48658083437500 
 S -3.30732151250000 1.91602515625000 7.38708583437500 
 S -3.26209851250000 5.52718315625000 7.50745183437500 
