16

 C -3.29448440312500 1.59471806875000 5.52020675625000 
 C -3.28909840312500 5.29022106875000 5.67268975625000 
 C -4.57040740312500 1.24155806875000 4.99035975625000 
 C -4.46252840312500 4.73351206875000 5.04028275625000 
 N -2.30062140312500 1.71361206875000 4.65439275625000 
 N -2.29528240312500 5.52493806875000 4.85340575625000 
 N -4.55623240312500 1.07649706875000 3.65044275625000 
 N -4.34157140312500 4.63727306875000 3.72926975625000 
 N -4.85710940312500 1.06665206875000 7.51544075625000 
 N -5.01203040312500 4.89692306875000 7.60048675625000 
 S -5.80297940312500 0.938343068750000 6.21488275625000 
 S -5.71040740312500 4.29725206875000 6.19244275625000 
 S -3.04027940312500 1.49037106875000 3.17481175625000 
 S -2.79934540312500 5.18962406875000 3.33661575625000 
 S -3.27042240312500 1.61713506875000 7.20570175625000 
 S -3.41915440312500 5.39927406875000 7.44489775625000 
