16

 C -2.94735223125000 1.64436572812500 5.73909120625000 
 C -3.14658223125000 5.27306972812500 5.64992220625000 
 C -4.24264823125000 1.46339272812500 5.11728120625000 
 C -4.45077723125000 4.94748272812500 5.06210920625000 
 N -1.90924623125000 2.01964672812500 4.94253020625000 
 N -2.16951223125000 5.52326772812500 4.79247720625000 
 N -4.15771323125000 1.43758972812500 3.75631420625000 
 N -4.36851723125000 4.75633672812500 3.74391820625000 
 N -4.70037023125000 1.52434072812500 7.69215220625000 
 N -4.78308823125000 5.20279872812500 7.61058420625000 
 S -5.59894323125000 1.50673572812500 6.28622220625000 
 S -5.70946923125000 4.84991372812500 6.29715220625000 
 S -2.56602123125000 1.81892372812500 3.39929720625000 
 S -2.72685723125000 5.09560572812500 3.31544920625000 
 S -3.07684623125000 1.75458172812500 7.50325220625000 
 S -3.15928423125000 5.46440272812500 7.38759920625000 
