16

 C -3.31347219687500 1.46711330625000 5.62737132187500 
 C -3.53265419687500 5.27290830625000 5.59098832187500 
 C -4.49900819687500 0.973444306249998 5.02131632187500 
 C -4.66118519687500 4.66669330625000 4.86066032187500 
 N -2.31473019687500 1.77733930625000 4.77358832187500 
 N -2.57328419687500 5.62241830625000 4.77034532187500 
 N -4.42486919687500 0.796363306249998 3.70607832187500 
 N -4.44736119687500 4.38870230625000 3.56604732187500 
 N -4.93738519687500 1.06040530625000 7.54372632187500 
 N -5.26135519687500 4.83577430625000 7.42800232187500 
 S -5.73569319687500 0.645158306249998 6.17401432187500 
 S -5.92780019687500 4.21100530625000 6.02195932187500 
 S -2.90369519687500 1.42919530625000 3.31016732187500 
 S -2.96385019687500 5.15294430625000 3.21903632187500 
 S -3.30164219687500 1.52949630625000 7.35938432187500 
 S -3.75777619687500 5.49785930625000 7.30770032187500 
