16

 C -3.16711931875000 1.34612063437500 5.56647884687500 
 C -2.95380131875000 5.24701363437500 5.44930884687500 
 C -4.37432331875000 0.787192634374996 5.05004884687500 
 C -4.20855531875000 4.87216863437500 4.82756084687500 
 N -2.24370231875000 1.60331563437500 4.67686784687500 
 N -1.94375431875000 5.49798363437500 4.59208884687500 
 N -4.36896631875000 0.595816634374996 3.75740384687500 
 N -4.15881831875000 4.85821363437500 3.49186984687500 
 N -4.81821131875000 1.24932863437500 7.55658184687500 
 N -4.56602231875000 5.05889663437500 7.35353184687500 
 S -5.60868931875000 0.540059634374996 6.24644184687500 
 S -5.41936531875000 4.66678563437500 6.02167784687500 
 S -2.84303531875000 1.03971263437500 3.17479984687500 
 S -2.65359031875000 5.29849663437500 3.04257684687500 
 S -3.24594531875000 1.79519163437500 7.28359584687500 
 S -2.99488131875000 5.39793463437500 7.15482984687500 
