16

 C -3.33685276250000 1.55248579375000 5.79454132812500 
 C -3.05061876250000 5.30766079375000 5.84638532812500 
 C -4.54917776250000 1.11141979375000 5.09934432812500 
 C -4.22520776250000 4.78458479375000 5.23175832812500 
 N -2.25526076250000 1.74105579375000 5.10054032812500 
 N -2.01533776250000 5.42290379375000 4.93067132812500 
 N -4.28428676250000 0.981806793749999 3.81977132812500 
 N -4.15030776250000 4.60207779375000 3.92178632812500 
 N -4.95990076250000 1.30932679375000 7.66443932812500 
 N -4.98631076250000 4.94351079375000 7.71203832812500 
 S -5.80214776250000 0.788319793749999 6.32716332812500 
 S -5.53222076250000 4.28578679375000 6.24584832812500 
 S -2.61532776250000 1.26051379375000 3.55216232812500 
 S -2.61876776250000 4.87188279375000 3.43993432812500 
 S -3.42890376250000 1.85331479375000 7.49600732812500 
 S -3.29525676250000 5.47135779375000 7.59087432812500 
