16

 C -3.04476166875000 1.12044429375000 5.61329811562500 
 C -3.06715466875000 4.81017529375000 5.48923911562500 
 C -4.12551466875000 0.442181293750003 4.98752011562500 
 C -4.28568366875000 4.26992829375000 4.90905411562500 
 N -2.05856666875000 1.49154529375000 4.81103311562500 
 N -2.01019666875000 4.86727529375000 4.68401411562500 
 N -3.98477666875000 0.281937293750004 3.67193411562500 
 N -4.22762166875000 4.16068229375000 3.57596311562500 
 N -4.95614766875000 1.02113129375000 7.35823211562500 
 N -4.97469066875000 5.21290829375000 7.23902511562500 
 S -5.55140766875000 0.326134293750003 5.98342211562500 
 S -5.67180666875000 4.38398329375000 5.98127711562500 
 S -2.50503466875000 0.997572293750003 3.27430811562500 
 S -2.64354366875000 4.54801929375000 3.18831711562500 
 S -3.39563666875000 1.60641829375000 7.21374911562500 
 S -3.29930266875000 5.25747029375000 7.15263111562500 
