16

 C -3.10867678750000 1.24632640312500 5.47047857500000 
 C -2.86749278750000 5.26173840312500 5.49607757500000 
 C -4.23358078750000 0.888314403124999 4.68549457500000 
 C -4.13123278750000 4.92778440312500 4.85359957500000 
 N -1.95154878750000 1.49109040312500 4.80251957500000 
 N -1.88573378750000 5.23504440312500 4.58865157500000 
 N -3.95257078750000 0.774121403124998 3.33848157500000 
 N -4.17750378750000 4.66538440312500 3.55998257500000 
 N -4.94596278750000 1.28128340312500 7.21081057500000 
 N -4.77726478750000 5.15641040312500 7.35726157500000 
 S -5.60310578750000 0.669404403124999 5.81787257500000 
 S -5.47999078750000 4.95008840312500 5.89287457500000 
 S -2.28274678750000 1.04869740312500 3.30408957500000 
 S -2.60019878750000 4.86421440312500 3.13089857500000 
 S -3.29007678750000 1.40085040312500 7.16594657500000 
 S -3.09963378750000 5.46299140312500 7.27416857500000 
