16

 C -3.44203301250000 1.38196300937500 5.47992826562500 
 C -3.12815301250000 4.88353600937500 5.01822426562500 
 C -4.47297401250000 0.633380009375000 4.81164226562500 
 C -4.32278201250000 4.41398700937500 4.33690326562500 
 N -2.49413101250000 1.71861800937500 4.63279426562500 
 N -2.10165801250000 5.14957900937500 4.21006426562500 
 N -4.25638901250000 0.417804009375001 3.53260726562500 
 N -4.22523301250000 4.40915900937500 3.00239526562500 
 N -5.15296301250000 0.816358009375000 7.30581926562500 
 N -4.98133501250000 4.68686400937500 6.83035126562500 
 S -5.78756901250000 0.311003009375001 5.87908326562500 
 S -5.57220301250000 3.98294400937500 5.45762726562500 
 S -2.86977201250000 1.18503500937500 3.07259426562500 
 S -2.70115401250000 4.84118500937500 2.62079126562500 
 S -3.59103201250000 1.43461500937500 7.18862926562500 
 S -3.36388901250000 5.21018400937500 6.72256126562500 
