16

 C -3.20301633437500 1.47773498437500 5.61412940312500 
 C -3.51767933437500 5.30646998437500 5.47510940312500 
 C -4.40270633437500 0.829368984374998 5.08061340312500 
 C -4.57564533437500 4.56813398437500 4.87901740312500 
 N -2.25201533437500 1.75799998437500 4.75080940312500 
 N -2.46527933437500 5.60513598437500 4.70777340312500 
 N -4.32923933437500 0.702052984374998 3.75909540312500 
 N -4.47230733437500 4.45744898437500 3.55418340312500 
 N -4.89410033437500 0.860535984374998 7.58150840312500 
 N -5.38471133437500 4.97254998437500 7.27689440312500 
 S -5.67445033437500 0.466343984374998 6.20002640312500 
 S -5.91301333437500 4.10132498437500 5.89927940312500 
 S -2.77796633437500 1.25101198437500 3.28213440312500 
 S -2.94232033437500 5.00706798437500 3.19804240312500 
 S -3.39102933437500 1.55729598437500 7.38671440312500 
 S -3.83667433437500 5.60680298437500 7.13611640312500 
