16

 C -2.87808828125000 2.02075155312500 5.38102045625000 
 C -3.01774328125000 5.13269255312500 5.46412345625000 
 C -4.06530428125000 1.41779755312500 4.77131045625000 
 C -4.22062328125000 4.93409955312500 4.74156645625000 
 N -1.84951128125000 2.26192255312500 4.55692545625000 
 N -1.92670428125001 5.15487955312500 4.66165145625000 
 N -3.94902628125000 1.21442555312500 3.43816545625000 
 N -4.15399528125000 4.90022955312500 3.42207745625000 
 N -4.61568828125001 1.82243355312500 7.34228245625000 
 N -4.96173128125000 4.93958555312500 7.22948445625000 
 S -5.44877828125000 1.45217055312500 5.93570845625000 
 S -5.59386128125001 4.54593655312500 5.72611445625000 
 S -2.41384528125000 1.70033455312500 3.07000045625000 
 S -2.51820628125000 5.02029955312500 3.11562445625000 
 S -3.01818428125000 2.29206255312500 7.09696145625000 
 S -3.37673928125000 5.31417055312500 7.17112845625000 
