16

 C -3.20566276875000 1.37354050625000 5.66093003437500 
 C -3.50153276875000 5.32164650625000 5.41255703437500 
 C -4.36300776875000 0.734859506250005 5.03229003437500 
 C -4.51571376875000 4.52588350625000 4.76770803437500 
 N -2.20316376875000 1.62769150625000 4.85097103437500 
 N -2.47336176875000 5.51880850625000 4.64348503437500 
 N -4.16884276875000 0.509788506250005 3.75387303437500 
 N -4.30712176875000 4.23052550625000 3.49996603437500 
 N -4.82800176875000 0.796626506250004 7.59277503437500 
 N -5.34200276875000 4.97317450625000 7.22725803437500 
 S -5.58870376875000 0.363196506250005 6.13765003437500 
 S -5.83303576875000 4.13448550625001 5.90155703437500 
 S -2.71432376875000 1.16335850625000 3.30234303437500 
 S -2.83807476875000 4.93248250625000 3.09824403437500 
 S -3.39241876875000 1.63010550625000 7.39654303437500 
 S -3.85365376875000 5.71502650625000 7.13105803437500 
