16

 C -3.25258683125000 1.11043959687500 5.26996321250000 
 C -2.96536683125000 5.08209659687500 5.42771421250000 
 C -4.47126583125000 0.770329596875000 4.62934821250000 
 C -4.07673383125000 4.37282059687500 4.82874921250000 
 N -2.24704983125000 1.27388359687500 4.43753221250000 
 N -1.95139583125000 5.25712759687500 4.57414821250000 
 N -4.34364383125000 0.560713596875000 3.34305521250000 
 N -3.92369383125000 4.01844059687500 3.53711621250000 
 N -5.14639583125000 1.48625859687500 7.00805021250000 
 N -4.84219883125000 5.13864459687500 7.21238521250000 
 S -5.91669483125000 0.940335596875000 5.62332221250000 
 S -5.53940883125000 4.42133159687500 5.88255621250000 
 S -2.74962983125000 0.919768596875000 2.88533921250000 
 S -2.44553483125000 4.68482559687500 3.09691121250000 
 S -3.51074283125000 1.69950759687500 6.86386521250000 
 S -3.25400283125000 5.58944159687500 7.07466821250000 
