16

 C -3.14074475000000 1.43037007500000 5.32114016250000 
 C -3.03208975000000 4.89719307500000 5.56668316250000 
 C -4.27361775000000 0.645498074999999 4.72280616250000 
 C -4.36048475000000 4.72304707500000 5.01681616250000 
 N -2.15257675000000 1.70161907500000 4.46507216250000 
 N -2.05123275000000 4.92768807500000 4.66789716250000 
 N -4.10808075000000 0.287197074999999 3.46723216250000 
 N -4.40403075000000 4.57423407500000 3.70444516250000 
 N -4.92932075000000 1.06228907500000 7.14235216250000 
 N -4.68589175000000 4.87240507500000 7.55853116250000 
 S -5.52526775000000 0.261974074999999 5.81464816250000 
 S -5.56269875000000 4.41501907500000 6.23410616250000 
 S -2.71372775000000 1.01831807500000 2.98521116250000 
 S -2.82501975000000 4.77798007500000 3.17170316250000 
 S -3.35637275000000 1.68279907500000 7.02064416250000 
 S -3.05665875000000 5.10765207500000 7.24641016250000 
