16

 C -3.31981685625000 1.38374954062500 5.23980120312500 
 C -3.21741985625000 5.05995454062500 5.36912820312500 
 C -4.51539585625000 0.857660540625000 4.66999720312500 
 C -4.43361885625000 4.97514054062500 4.64893320312500 
 N -2.28974785625000 1.51261354062500 4.40510820312500 
 N -2.10677185625000 5.17969654062500 4.65278420312500 
 N -4.44998985625000 0.739863540625000 3.33824420312500 
 N -4.25838385625000 5.25505054062500 3.32364120312500 
 N -4.98296285625000 1.22786154062500 7.24167320312500 
 N -4.94343385625000 4.73160354062500 7.20825120312500 
 S -5.84107385625000 0.603821540625000 5.86317220312500 
 S -5.70144785625000 4.96618354062500 5.80715620312500 
 S -2.91757485625000 1.17054754062500 2.91586920312500 
 S -2.59955685625000 5.39123454062500 3.08256720312500 
 S -3.37005185625000 1.57399754062500 7.00371720312500 
 S -3.31155385625000 5.05898154062500 7.12887820312500 
