16

 C -2.88469658125000 1.72133263750000 5.73743170000000 
 C -3.33891558125000 5.38918463750000 5.33819770000000 
 C -4.15525658125000 1.52025463750000 5.10552070000000 
 C -4.55495258125000 4.91830063750000 4.73325470000000 
 N -1.86622158125000 1.88873763750000 4.91352670000000 
 N -2.29910858125000 5.63030363750000 4.54270570000000 
 N -4.10241258125000 1.55255663750000 3.78635170000000 
 N -4.50763358125000 4.85920363750000 3.42004370000000 
 N -4.69457958125000 1.66593963750000 7.62633470000000 
 N -4.97692958125000 5.08315563750000 7.33168670000000 
 S -5.47824558125000 1.42475863750000 6.17570070000000 
 S -5.69033658125000 4.46671563750000 6.01271870000000 
 S -2.56517758125000 1.72897663750000 3.33786170000000 
 S -2.95736158125000 5.33539663750000 3.01425570000000 
 S -3.00533258125000 1.77397863750000 7.44560370000000 
 S -3.43517058125000 5.72275963750000 7.03035770000000 
