16

 C -3.02311019687500 1.30819941250000 5.63365075625000 
 C -3.10606219687500 5.17195741250000 5.43743075625000 
 C -4.17389319687500 0.812409412500000 4.94602575625000 
 C -4.18057719687500 4.34455141250000 4.88930875625000 
 N -1.91151519687500 1.40372541250000 4.92023575625000 
 N -2.18055819687500 5.37192541250000 4.54035975625000 
 N -3.95930719687500 0.528899412500000 3.69075975625000 
 N -3.93716919687500 3.82384341250000 3.68745075625000 
 N -4.78339819687500 0.958367412500000 7.50190875625000 
 N -4.87527719687500 5.17821041250000 7.28045275625000 
 S -5.56116519687500 0.564652412500000 6.09383375625000 
 S -5.45016719687500 4.12047341250000 6.09535675625000 
 S -2.43623119687500 0.997312412500000 3.33716975625000 
 S -2.50219419687500 4.48789141250000 3.19783575625000 
 S -3.29301019687500 1.57583641250000 7.30663075625000 
 S -3.36129319687500 5.90528141250000 6.96026275625000 
