16

 C -3.02255907187500 1.30794309687500 5.73165846562500 
 C -3.19288107187500 5.10572309687500 5.45322546562500 
 C -4.17469607187500 0.713816096875001 5.11237146562500 
 C -4.36818207187500 4.51913709687500 4.83093846562500 
 N -1.93016007187500 1.46905809687500 4.95437946562500 
 N -2.18921907187500 5.24168609687500 4.59619846562500 
 N -3.94908707187500 0.278985096875001 3.86935046562500 
 N -4.28091507187500 4.26132109687500 3.53725546562500 
 N -4.72460807187500 0.785642096875001 7.66614246562500 
 N -4.88391507187500 4.72296109687500 7.40474546562500 
 S -5.51045807187500 0.348244096875002 6.25705446562500 
 S -5.66580707187500 4.25851509687500 5.98719746562500 
 S -2.42524707187500 0.759637096875001 3.51006746562500 
 S -2.69613407187500 4.61566309687500 3.12991246562500 
 S -3.21555207187500 1.47390309687500 7.46460246562500 
 S -3.30124607187500 5.17922109687500 7.20842246562500 
