16

 C -3.27779720000000 1.00057797812500 5.48656182187500 
 C -3.29424720000000 5.11853897812500 5.72688682187500 
 C -4.52524320000000 0.730961978124999 4.78736382187500 
 C -4.42623520000000 4.47565397812500 5.10613582187500 
 N -2.21534120000000 1.18645797812500 4.72552282187500 
 N -2.26355620000000 5.29799097812500 4.88746082187500 
 N -4.39771020000000 0.731562978125000 3.46297382187500 
 N -4.29647720000000 4.36065497812500 3.77849682187500 
 N -5.04969820000000 0.597565978125000 7.28384782187500 
 N -4.94031820000000 4.57356997812500 7.64057982187500 
 S -5.83902520000000 0.400371978124999 5.81168982187500 
 S -5.66934420000000 4.20930497812500 6.17399682187500 
 S -2.81156220000000 1.13648597812500 3.17793682187500 
 S -2.77580620000000 4.86974797812500 3.38398782187500 
 S -3.39997820000000 0.865349978125000 7.22144082187500 
 S -3.35933320000000 5.22553997812500 7.46985382187500 
