16

 C -3.16505289687499 1.44009347187500 5.56695835312500 
 C -2.98426289687499 5.23041947187500 5.41261135312500 
 C -4.34049989687499 0.794786471874999 5.03175935312500 
 C -4.25352489687499 4.89869847187500 4.77483935312500 
 N -2.22115389687499 1.49557147187500 4.63254435312500 
 N -1.97180889687499 5.41587047187500 4.57404935312500 
 N -4.34808489687499 0.468420471874999 3.73778735312500 
 N -4.17936489687499 4.87588147187500 3.45938535312500 
 N -4.99050989687499 1.27688947187500 7.47381035312500 
 N -4.62526489687499 5.12581347187500 7.37325035312500 
 S -5.61512089687499 0.415570471874998 6.16977135312500 
 S -5.53434289687499 4.63851547187500 6.04173935312500 
 S -2.92471589687499 1.05174147187500 3.21136435312500 
 S -2.54465189687499 5.25044347187500 3.10842035312500 
 S -3.41537789687499 1.85516047187500 7.28490835312500 
 S -2.93412089687499 5.41707547187500 7.13581335312500 
