16

 C -3.08203850937500 1.15880475625000 5.47206209375000 
 C -3.13928450937500 5.51466975625000 5.48129909375000 
 C -4.34860650937500 0.926250756250002 4.82868409375000 
 C -4.21613050937500 4.78683875625000 4.86478009375000 
 N -2.02758550937500 1.26689775625000 4.62183809375000 
 N -2.10733650937500 5.76986175625000 4.68121909375000 
 N -4.28253650937500 0.897572756250002 3.47348509375000 
 N -4.00979050937500 4.40367375625000 3.62864909375000 
 N -4.78560950937500 0.990829756250002 7.40305809375000 
 N -5.07274350937500 5.34592275625000 7.20439009375000 
 S -5.64746650937500 0.813190756250002 6.02903009375000 
 S -5.62156550937500 4.39564875625000 5.88137709375000 
 S -2.67819550937500 0.949321756250002 3.09098309375000 
 S -2.50041750937500 5.04716775625000 3.19421309375000 
 S -3.17598150937500 1.35277975625000 7.18841809375000 
 S -3.52821850937500 5.94754375625000 7.10458409375000 
