16

 C -3.18711197500001 1.41644840000000 5.68808434687500 
 C -2.86786097500001 5.23804540000000 5.45573534687500 
 C -4.42406897500001 1.14047140000000 5.03618334687500 
 C -4.13455797500001 4.85423840000000 4.81594034687500 
 N -2.14499197500001 1.56802140000000 4.87262434687500 
 N -1.87757797500001 5.35336740000000 4.62203934687500 
 N -4.33229997500001 1.14682240000000 3.70989734687500 
 N -4.09245597500001 4.75888440000000 3.51244434687500 
 N -4.89222397500001 1.56565540000000 7.55633034687500 
 N -4.72423197500001 5.11302140000000 7.30208234687500 
 S -5.69663397500001 0.889480399999997 6.19999534687500 
 S -5.37948597500001 4.57131440000000 5.89002434687500 
 S -2.70995697500001 1.44242740000000 3.28566434687500 
 S -2.58352797500001 5.12757540000000 3.05532934687500 
 S -3.23792897500001 1.82160440000000 7.33765534687500 
 S -3.06607797500001 5.35191240000000 7.19954834687500 
