16

 C -3.09374256250000 1.23115655625000 5.67648836562500 
 C -3.03793856250000 4.80627455625000 5.54725836562500 
 C -4.39518256250000 0.846286556249998 5.10024436562500 
 C -4.30485756250000 4.52545655625000 4.92900436562500 
 N -2.16223856250000 1.20858455625000 4.74661536562500 
 N -1.98120556250000 4.85114055625000 4.73036436562500 
 N -4.37638756250000 0.505330556249998 3.81520136562500 
 N -4.21421856250000 4.07527455625000 3.69523236562500 
 N -4.76529456250000 1.27443955625000 7.62003636562500 
 N -4.82803956250000 4.83539255625000 7.45230436562500 
 S -5.68363756250000 0.837890556249998 6.25027936562500 
 S -5.56117156250000 4.37602555625000 6.05300036562500 
 S -2.78829256250000 0.828035556249998 3.28393436562500 
 S -2.63512356250000 4.36934355625000 3.26423136562500 
 S -3.19460156250000 1.66778655625000 7.43963836562500 
 S -3.21615656250000 5.22153355625000 7.25563936562500 
