16

 C -3.01708863125000 1.25055334375000 5.67980971875000 
 C -2.99883363125000 4.89084334375000 5.50650771875000 
 C -4.31838163125000 0.859983343750002 5.11869071875000 
 C -4.20461763125000 4.29758634375000 4.96168571875000 
 N -2.00781763125000 1.26122934375000 4.82179771875000 
 N -1.99032463125000 4.83117434375000 4.63964371875000 
 N -4.29306663125000 0.656821343750003 3.82288271875000 
 N -4.15064963125000 4.08506934375000 3.66006371875000 
 N -4.81472963125000 1.27140334375000 7.60527971875000 
 N -4.72714863125000 4.83135734375000 7.37097271875000 
 S -5.63539063125000 0.839498343750003 6.23766471875000 
 S -5.58132863125000 4.36639034375000 6.01193171875000 
 S -2.78036663125000 0.883732343750003 3.35184771875000 
 S -2.58003363125000 4.30799234375000 3.20191171875000 
 S -3.17381863125000 1.59091134375000 7.31229471875000 
 S -3.11684263125000 5.29464234375000 7.21959971875000 
