16

 C -3.11276107500000 1.60268246875000 5.62569055000000 
 C -3.25450707500000 4.92731846875000 5.43615855000000 
 C -4.42954407500000 1.26557546875000 5.04927755000000 
 C -4.49703007500000 4.73742246875000 4.73098855000000 
 N -2.09031107500000 1.55503946875000 4.73553755000000 
 N -2.17672107500000 4.85347746875000 4.67073655000000 
 N -4.44077107500000 1.15363746875000 3.70979255000000 
 N -4.38612407500000 4.66419146875000 3.40046155000000 
 N -4.84201607500000 1.61484446875000 7.53836955000000 
 N -5.04835707500000 4.90949546875000 7.33031055000000 
 S -5.69183907500000 1.18750946875000 6.20475355000000 
 S -5.81964307500000 4.57730846875000 5.86064755000000 
 S -2.86287307500000 1.36164546875000 3.29375155000000 
 S -2.71115307500000 4.82042646875000 3.12026455000000 
 S -3.18507207500000 1.83609646875000 7.37892355000000 
 S -3.39613407500000 5.13408946875000 7.15279055000000 
