16

 C -2.99461956250000 1.64380595625000 5.42623507812500 
 C -3.10922656250000 5.17858795625000 5.64868807812500 
 C -4.30953956250000 1.36568795625000 4.93283607812500 
 C -4.26589856250000 4.70815095625000 4.94036007812500 
 N -2.05237756250000 1.89871695625000 4.53398907812500 
 N -2.06589056250000 5.53985695625000 4.92033607812500 
 N -4.25320256250000 1.17044395625000 3.61278907812500 
 N -4.01260856250000 4.59874795625000 3.63274607812500 
 N -4.47135456250000 1.24598495625000 7.40174907812500 
 N -4.84187056250000 4.77808695625000 7.44491507812500 
 S -5.54995856250000 1.21218795625000 6.10491307812500 
 S -5.62695056250000 4.49833395625000 6.02664307812500 
 S -2.65827356250000 1.33435995625000 3.12837207812500 
 S -2.47447756250000 5.09221495625000 3.39329907812500 
 S -2.89841956250000 1.64374195625000 7.13774607812500 
 S -3.26067856250000 5.33296595625000 7.35310307812500 
