16

 C -3.28544324687500 1.46808930625000 5.40645695625000 
 C -3.34322424687500 5.31256030625000 5.43373395625000 
 C -4.44530324687500 0.800570306250002 4.92265795625000 
 C -4.45940124687500 4.74877030625000 4.76607995625000 
 N -2.36693224687500 1.65951730625000 4.46467295625000 
 N -2.37752824687500 5.58912730625000 4.57990295625000 
 N -4.35398224687500 0.476542306250002 3.62501995625000 
 N -4.44695124687500 4.71629230625000 3.46455095625000 
 N -4.77181424687500 1.14392030625000 7.48608295625000 
 N -5.05260624687500 4.68668230625000 7.20923195625000 
 S -5.61943324687500 0.498987306250002 6.18917295625000 
 S -5.66999224687500 4.14944730625000 5.79977395625000 
 S -2.86234724687500 1.04466330625000 3.03935895625000 
 S -2.94236524687500 5.19964730625000 3.05862395625000 
 S -3.37002224687500 1.97449330625000 7.02673795625000 
 S -3.62131324687500 5.52721230625000 7.14962195625000 
