16

 C -3.13108204687500 1.30315208750000 5.55930049375000 
 C -3.64453804687500 4.98759108750000 5.04339249375000 
 C -4.37052704687500 0.765824087499998 5.03405849375000 
 C -4.69948404687500 4.16101008750000 4.48519949375000 
 N -2.10311904687500 1.45892608750000 4.66324049375000 
 N -2.61369204687500 5.20455208750000 4.22420549375000 
 N -4.36291604687500 0.639141087499998 3.68123149375000 
 N -4.51981304687500 3.96857308750000 3.16968349375000 
 N -4.74818104687500 0.809647087499998 7.56954049375000 
 N -5.27619104687500 4.60986908750000 6.95499549375000 
 S -5.61563304687500 0.512831087499998 6.21971449375000 
 S -6.01812404687500 3.82422008750000 5.66093049375000 
 S -2.83200804687500 1.06391708750000 3.22740249375000 
 S -3.03180104687500 4.58128808750000 2.77936249375000 
 S -3.24675104687500 1.45262408750000 7.29582149375000 
 S -3.78713904687500 5.23377408750000 6.72731349375000 
