16

 C -3.50371594375000 1.47715235937500 5.51267047187500 
 C -2.94600394375000 5.21228735937500 5.50888647187500 
 C -4.47996194375000 0.605706359374997 4.92176647187500 
 C -4.16909194375000 4.88104535937500 4.83741147187500 
 N -2.47224694375000 1.75481235937500 4.74654447187500 
 N -1.90636094375000 5.25454535937500 4.65638547187500 
 N -4.17758594375000 0.252540359374997 3.68745347187500 
 N -4.03647794375000 4.61734535937500 3.51029847187500 
 N -5.14440194375000 1.06768235937500 7.35844047187500 
 N -4.80597294375000 4.98233535937500 7.28489147187500 
 S -5.80385194375000 0.276563359374998 6.04645047187500 
 S -5.57107794375000 4.85045735937500 5.76269147187500 
 S -2.71163294375000 1.01381335937500 3.27236847187500 
 S -2.48577194375000 4.86992935937500 3.09282547187500 
 S -3.71094894375000 1.83625335937500 7.19397047187500 
 S -3.14648494375000 5.45194035937500 7.23673547187500 
