16

 C -3.36064947812500 1.51166423750000 5.49689439062499 
 C -3.29857147812500 5.12124623750000 5.35483439062499 
 C -4.55067647812500 1.01113823750000 4.80403239062499 
 C -4.50921847812500 4.58790323750000 4.77470139062499 
 N -2.32888847812500 1.61275623750000 4.70507539062500 
 N -2.34020447812500 5.41368323750000 4.48257139062500 
 N -4.39496547812500 0.876895237499999 3.50707639062500 
 N -4.43949147812500 4.42629023750000 3.45437839062500 
 N -5.06171247812500 1.24180523750000 7.35237539062499 
 N -4.99444947812500 4.65534623750000 7.28036639062499 
 S -5.85781847812500 0.724318237499999 5.95580639062500 
 S -5.78695947812500 4.11145823750000 5.86232339062500 
 S -2.79090447812500 1.19083023750000 3.18241339062499 
 S -2.91270647812500 4.85647323750000 3.03277539062500 
 S -3.40612347812500 1.47695323750000 7.22861439062499 
 S -3.42862547812500 5.16131423750000 7.11148639062499 
