16

 C -3.36411778750000 1.15875979687500 5.83766880625000 
 C -3.20081178750000 5.03388079687500 5.23525880625000 
 C -4.62513378750000 0.861141796875001 5.03721080625000 
 C -4.37891278750000 4.54862879687500 4.55761880625000 
 N -2.30181978750000 1.43671579687500 5.11518580625000 
 N -2.18912478750000 5.19346479687500 4.41811980625000 
 N -4.40312678750000 0.806190796875001 3.73295680625000 
 N -4.28427978750000 4.41619879687500 3.25051580625000 
 N -5.27459978750000 0.851877796875001 7.57694280625000 
 N -5.03600178750000 4.84708279687500 7.02463580625000 
 S -6.01644778750000 0.706792796875000 6.09181180625000 
 S -5.79097878750000 4.51330379687500 5.59403080625000 
 S -2.80717578750000 1.24535379687500 3.55374580625000 
 S -2.70584378750000 4.81561579687500 2.87018280625000 
 S -3.69022778750000 1.43886179687500 7.52042280625000 
 S -3.47184078750000 5.36808279687500 6.87392480625000 
