16

 C -3.21008346250000 1.28360568125000 5.73022495000000 
 C -3.20218846250000 5.29068368125000 5.56944595000000 
 C -4.49925346250000 1.08119368125000 5.08495595000000 
 C -4.42207046250000 4.83993768125000 4.92202395000000 
 N -2.17429346250000 1.33642068125000 4.89780495000000 
 N -2.24021846250000 5.63154068125000 4.69238595000000 
 N -4.48244646250000 0.877623681249998 3.78214095000000 
 N -4.24171546250000 4.57236968125000 3.61780495000000 
 N -4.94793846250000 1.39283068125000 7.61507895000000 
 N -4.98842646250000 5.04928768125000 7.41434495000000 
 S -5.78064046250000 1.10148668125000 6.17479395000000 
 S -5.69955746250000 4.51165768125000 5.95875695000000 
 S -2.88670946250000 0.955599681249998 3.39005895000000 
 S -2.69812246250000 5.05979968125000 3.21347095000000 
 S -3.30810146250000 1.45363968125000 7.44554495000000 
 S -3.28372846250000 5.43290068125000 7.34797895000000 
