16

 C -3.24113368437500 1.49773509375000 5.58905043437500 
 C -3.41450368437500 5.34160209375000 5.62236443437500 
 C -4.47944468437500 1.05347509375000 5.05369143437500 
 C -4.52582668437500 4.61351009375000 5.02113343437500 
 N -2.25735368437500 1.78716009375000 4.70972243437500 
 N -2.49734668437500 5.72258209375000 4.76083643437500 
 N -4.42716468437500 0.967258093750001 3.72769143437500 
 N -4.41250268437500 4.52209109375000 3.71484243437500 
 N -4.95711968437500 1.10681809375000 7.59879443437500 
 N -5.17973768437500 4.74392409375000 7.50659943437500 
 S -5.78619368437500 0.785622093750001 6.19761743437500 
 S -5.88831668437500 4.28853109375000 6.07247843437500 
 S -2.99100168437500 1.48765609375000 3.16625043437500 
 S -2.97671468437500 5.16127509375000 3.28727443437500 
 S -3.35617368437500 1.52016009375000 7.36149743437500 
 S -3.66683768437500 5.41254809375000 7.34059943437500 
