16

 C -3.29398152812499 1.52209545937500 5.62014039375000 
 C -2.98187852812499 5.33016645937500 5.90794239375000 
 C -4.30416652812499 0.847074459375001 4.88005039375000 
 C -4.16200052812499 4.73292245937500 5.35132239375000 
 N -2.37925652812499 2.10355445937500 4.81777539375000 
 N -2.09994452812499 5.62083445937500 4.97658039375000 
 N -4.08629052812499 0.714814459375001 3.55414039375000 
 N -4.15262052812499 4.50189845937500 4.05638739375000 
 N -5.02807252812499 1.11328545937500 7.41705939375000 
 N -4.74963952812499 5.05079745937500 7.86091239375000 
 S -5.66654052812499 0.554123459375001 5.99980239375000 
 S -5.44654052812499 4.58547645937500 6.42945139375000 
 S -2.59991652812499 1.54966045937500 3.28368839375000 
 S -2.76808952812499 5.11561945937500 3.50213639375000 
 S -3.48418552812499 1.75013645937500 7.26532539375000 
 S -3.16678652812499 5.47089645937500 7.66142739375000 
