16

 C -3.33366748750000 0.920966881249997 5.44640654375000 
 C -3.15316848750000 4.83130688125000 5.59872954375000 
 C -4.55334748750000 0.760753881249998 4.77382954375000 
 C -4.43507448750000 4.54562188125000 4.98595354375000 
 N -2.30524048750000 1.10978988125000 4.62761054375000 
 N -2.16415348750000 5.06423788125000 4.76029554375000 
 N -4.45601848750000 0.829849881249998 3.43634154375000 
 N -4.40436248750000 4.45327688125000 3.65584154375000 
 N -4.92571548750000 0.547042881249998 7.32449354375000 
 N -4.98879448750000 4.68206688125000 7.49406354375000 
 S -5.77900848750000 0.295979881249997 5.92434354375000 
 S -5.76277848750000 4.51929188125000 6.03563254375000 
 S -2.87579548750000 1.00536088125000 3.06765154375000 
 S -2.91337248750000 4.79096288125000 3.21641454375000 
 S -3.30746648750000 0.817233881249998 7.13608054375000 
 S -3.33390448750000 4.69699688125000 7.36079354375000 
