16

 C -3.26661985937500 1.37758413125000 5.53608376562500 
 C -3.29875285937500 5.07734313125000 5.44505276562500 
 C -4.55207585937500 1.08518313125000 4.87786176562500 
 C -4.53276585937500 4.62076413125000 4.84146176562500 
 N -2.20858785937500 1.54465713125000 4.69270976562500 
 N -2.29422485937500 5.31683413125000 4.61823076562500 
 N -4.45371585937500 0.905143131250001 3.52811776562500 
 N -4.45291985937500 4.50606413125000 3.52875076562500 
 N -5.02199185937500 1.17224013125000 7.48737576562500 
 N -4.97996485937500 4.84060313125000 7.37152576562500 
 S -5.82690785937500 0.754087131250001 6.07378676562500 
 S -5.76886685937500 4.41004613125000 5.95769776562500 
 S -2.85805485937500 1.18715013125000 3.17962276562500 
 S -2.89276185937500 4.91616513125000 3.09966376562500 
 S -3.39390385937500 1.45564613125000 7.29415476562500 
 S -3.37107185937500 5.13303413125000 7.21463176562500 
