16

 C -3.13639561562500 1.46004711875000 5.43029293437500 
 C -3.23814061562500 5.22764011875000 5.34819693437500 
 C -4.31230461562500 0.757324118749999 4.87089093437500 
 C -4.49818361562500 4.70219511875000 4.89662993437500 
 N -2.10127561562500 1.61035511875000 4.58202993437500 
 N -2.22338061562500 5.16263911875000 4.47506493437500 
 N -4.14874361562500 0.425126118749999 3.58352293437500 
 N -4.49922261562500 4.32514811875000 3.64492393437500 
 N -4.99925461562500 1.43067011875000 7.32617193437500 
 N -4.98359961562500 5.19836711875000 7.31691793437500 
 S -5.62010761562500 0.595539118749999 6.03462893437500 
 S -5.82028561562500 4.71815811875000 6.00306993437500 
 S -2.55985061562500 0.844321118749999 3.13881893437500 
 S -2.97809261562500 4.56916411875000 3.06550093437500 
 S -3.40263461562500 1.90386811875000 7.12736793437500 
 S -3.41050661562500 5.58668311875000 7.05885293437500 
