16

 C -2.94088709375000 1.50125545000000 5.32488514375000 
 C -3.15576909375000 5.16337945000000 5.44109914375000 
 C -4.12026009375000 1.16463445000000 4.67718314375000 
 C -4.31288709375000 4.54807345000000 4.79990614375000 
 N -1.88756509375000 1.63720045000000 4.51640014375000 
 N -2.13153209375000 5.28662845000000 4.63113514375000 
 N -4.03168709375000 0.934332450000003 3.34910714375000 
 N -4.12635309375000 4.29294245000000 3.50967914375000 
 N -4.81031209375000 1.19826245000000 7.24308514375000 
 N -4.78505009375000 4.68932145000000 7.34056214375000 
 S -5.54531009375000 1.03464445000000 5.77597414375000 
 S -5.59170509375000 4.18828945000000 5.98969014375000 
 S -2.48060209375000 1.29014945000000 2.93839514375000 
 S -2.60867709375000 4.83942645000000 3.10977214375000 
 S -3.20311709375000 1.63520745000000 7.08144914375000 
 S -3.24088109375000 5.27605045000000 7.16666014375000 
