16

 C -3.19259583125000 1.40999726875000 5.55617985625000 
 C -3.35040583125000 5.10890226875000 5.43177485625000 
 C -4.31814483125000 0.898788268749997 4.88170685625000 
 C -4.55933583125000 4.77395526875000 4.72048885625000 
 N -2.13741883125000 1.65445426875000 4.81139385625000 
 N -2.32898683125000 5.47771126875000 4.66776885625000 
 N -4.18047183125000 0.699033268749997 3.55905785625000 
 N -4.40723383125000 4.77132526875000 3.37599285625000 
 N -5.01060683125000 1.22706126875000 7.44730885625000 
 N -5.12694083125000 4.80109526875000 7.29897885625000 
 S -5.68471883125000 0.618763268749998 6.07564685625000 
 S -5.86811483125000 4.43808026875000 5.86192685625000 
 S -2.60150283125000 1.23383826875000 3.22526985625000 
 S -2.83540183125000 5.19041226875000 3.09486585625000 
 S -3.38389683125000 1.60778626875000 7.33223185625000 
 S -3.50940383125000 5.27100626875000 7.10841285625000 
