16

 C -3.13642595312500 1.69325748750000 5.56560306562500 
 C -3.16045095312500 5.01563648750000 5.52460006562500 
 C -4.45525295312500 1.56869948750000 5.04349906562500 
 C -4.40382495312500 4.67532748750000 4.86188706562500 
 N -2.20958395312500 1.73768948750000 4.62350406562500 
 N -2.15508095312500 5.34518048750000 4.71625106562500 
 N -4.55366295312500 1.41366948750000 3.73118906562500 
 N -4.28373295312500 4.58266148749999 3.54098106562500 
 N -4.72356295312500 1.60213148750000 7.56227006562500 
 N -4.77651495312500 4.52608048750000 7.41488606562500 
 S -5.68116195312500 1.50687148750000 6.23078406562500 
 S -5.70786195312500 4.38919948750000 6.05101106562500 
 S -2.93687495312500 1.61677248750000 3.18499806562500 
 S -2.69026795312500 5.10464448750000 3.16775306562500 
 S -3.06968295312500 1.61099548750000 7.27488306562500 
 S -3.17973395312500 4.83506548750000 7.24739806562500 
