16

 C -2.95744437500000 1.78104866875000 5.63133284375000 
 C -3.10906037500000 5.37453466875000 5.62254084375000 
 C -4.08804637500000 1.08461166875000 5.04739484375000 
 C -4.32286737500000 4.86145466875000 5.02169884375000 
 N -1.93642137500000 1.96356666875000 4.81272684375000 
 N -2.12412037500000 5.64516866875000 4.77420384375000 
 N -3.87197237500000 0.634845668750001 3.80322484375000 
 N -4.19263037500000 4.51694066875000 3.73626984375000 
 N -4.76513237500000 1.40434666875000 7.55746884375000 
 N -4.83151637500000 5.31985666875000 7.48225384375000 
 S -5.43613437500000 0.774485668750001 6.13953484375000 
 S -5.68946137500000 4.97682166875000 6.12229984375000 
 S -2.37179737500000 1.10959566875000 3.33400784375000 
 S -2.59367637500000 4.95580766875000 3.32739584375000 
 S -3.27821237500000 2.11484766875000 7.33421684375000 
 S -3.24452437500000 5.64797066875000 7.27757884375000 
