16

 C -2.88119855312500 1.25373133750000 5.72422338125000 
 C -2.96391455312500 4.70298933750000 5.52392638125000 
 C -4.18552555312500 1.21995333750000 5.10051638125000 
 C -4.14000255312500 4.43826433750000 4.80635138125000 
 N -1.83482255312500 1.06294433750000 4.93433538125000 
 N -1.87830855312500 4.64268633750000 4.78273938125000 
 N -4.10941755312500 0.921067337499996 3.79017138125000 
 N -3.99132355312500 4.26784933750000 3.48190638125000 
 N -4.65218555312500 1.43993033750000 7.54467438125000 
 N -4.91221955312500 4.80436233750000 7.23649138125000 
 S -5.55682455312500 1.39240833750000 6.17584438125000 
 S -5.58942755312500 4.37300133750000 5.69687138125000 
 S -2.42573255312500 0.952972337499996 3.39061338125000 
 S -2.36721455312500 4.39868133750000 3.20840738125000 
 S -3.02978255312500 1.61490233750000 7.39974438125000 
 S -3.29101855312500 5.12436233750000 7.17341938125000 
