16

 C -3.07754346250000 1.63244567500000 5.47447846250000 
 C -3.56189446250000 4.99841067500000 5.07718846250000 
 C -4.10243746250000 0.791944675000001 4.91435946250000 
 C -4.69511846250000 4.30661267500000 4.46163346250000 
 N -2.24213646250000 2.03041267500000 4.53555246250000 
 N -2.55885946250000 5.29530067500000 4.26925346250000 
 N -3.93589546250000 0.369465675000001 3.71119246250000 
 N -4.40689546250000 3.90288867500000 3.24468346250000 
 N -4.76066846250000 1.24666367500000 7.35647746250000 
 N -5.47171546250000 4.87967567500000 6.89452346250000 
 S -5.41466346250000 0.658509675000000 5.94761346250000 
 S -6.02807546250000 4.00398867500000 5.51189246250000 
 S -2.49160746250000 1.05461067500000 3.18798646250000 
 S -2.93400346250000 4.52004867500000 2.79763746250000 
 S -3.40877246250000 2.18991367500000 7.06964046250000 
 S -3.84451446250000 5.27684767500000 6.74540646250000 
