16

 C -3.31562300937500 1.58800711562500 5.55641880937500 
 C -3.34327000937500 5.33822811562500 5.69784880937500 
 C -4.57207600937500 1.20686611562500 4.98482380937500 
 C -4.44439600937500 4.71633811562500 5.04810980937500 
 N -2.31107700937500 1.71723911562500 4.66813980937500 
 N -2.32454500937500 5.52645211562500 4.85366980937500 
 N -4.54851300937500 1.09278111562500 3.65224180937500 
 N -4.34822600937500 4.62050511562500 3.69772880937500 
 N -4.84602700937500 1.07286711562500 7.50176880937500 
 N -5.03177500937500 4.87086511562500 7.60524380937500 
 S -5.79151600937500 0.934143115625003 6.19279380937500 
 S -5.72773100937500 4.29523711562500 6.16953380937500 
 S -3.04903000937500 1.48889811562500 3.18315780937500 
 S -2.82908200937500 5.19448411562500 3.33657280937500 
 S -3.26899200937500 1.60975511562500 7.22594080937500 
 S -3.41973400937500 5.40040011562500 7.44713580937500 
