16

 C -3.11639099062500 1.45581005625000 5.46405336562500 
 C -3.35856799062500 5.29429305625000 5.19804936562500 
 C -4.26425999062500 0.733077056249997 4.94487236562500 
 C -4.33083599062500 4.39057305625000 4.67196836562500 
 N -2.18782299062500 1.67262905625000 4.53397536562500 
 N -2.40687499062500 5.65048205625000 4.33038336562500 
 N -4.17026799062500 0.505296056249997 3.63191736562500 
 N -4.09729399062500 4.05063205625000 3.40226636562500 
 N -4.79027399062500 1.28140105625000 7.39813536562500 
 N -5.21842999062500 4.92938405625000 7.00814336562500 
 S -5.53453999062500 0.624300056249997 6.09425236562500 
 S -5.71594799062500 4.11037805625000 5.63652636562500 
 S -2.68996499062500 1.04812005625000 3.08376536562500 
 S -2.74538999062500 4.75311805625000 2.96186936562500 
 S -3.22737899062500 1.74985205625000 7.13005836562500 
 S -3.69937299062500 5.67396405625000 6.89214036562500 
