16

 C -2.89567165625000 1.55019609062500 5.35128546250000 
 C -3.17838165625000 5.25980509062500 5.51014946250000 
 C -4.12619665625000 0.953385090625001 4.81367746250000 
 C -4.22396765625000 4.60862709062500 4.84802946250000 
 N -1.99218265625000 1.82335309062500 4.45678646250000 
 N -2.09196765625000 5.40552109062500 4.75658046250000 
 N -4.04580165625000 0.751772090625001 3.52733346250000 
 N -3.95992965625000 4.14565109062500 3.65119046250000 
 N -4.57866265625000 1.02815609062500 7.28394846250000 
 N -4.93069765625000 4.87402009062500 7.30924546250000 
 S -5.30010165625000 0.467521090625001 5.89836246250000 
 S -5.63288265625000 4.43200809062500 5.89632946250000 
 S -2.51545665625000 1.16526509062500 3.03010746250000 
 S -2.37262765625000 4.62674809062500 3.35498746250000 
 S -3.06459265625000 1.73223609062500 7.14781746250000 
 S -3.36016565625000 5.42328509062500 7.26702846250000 
