16

 C -3.27814827500000 1.10701104375000 5.66659710625000 
 C -3.07603327500000 5.21682904375000 5.51885610625000 
 C -4.47993527500000 0.672727043750001 4.98802810625000 
 C -4.25820727500000 4.68960704375000 4.89462910625000 
 N -2.26082027500000 1.28723604375000 4.82776810625000 
 N -1.99760727500000 5.29963804375000 4.77473210625000 
 N -4.29881327500000 0.607712043750001 3.63742010625000 
 N -4.13193727500000 4.60408304375000 3.57166910625000 
 N -5.08280527500000 0.917621043750001 7.53950510625000 
 N -4.69491327500000 4.62847004375000 7.52648010625000 
 S -5.76039027500000 0.359174043750001 6.11796410625000 
 S -5.52468627500000 4.25809104375000 6.08299910625000 
 S -2.71066927500000 0.960715043750001 3.25189010625000 
 S -2.53166127500000 4.88995504375000 3.19604110625000 
 S -3.45713327500000 1.41460104375000 7.38298410625000 
 S -3.11741227500000 5.22648804375000 7.23232410625000 
