16

 C -3.31670181562500 1.23798961875000 5.54438991875000 
 C -3.24922881562500 5.08021361875000 5.21845291875000 
 C -4.58310481562500 1.10869761875000 4.85281691875000 
 C -4.47028381562500 4.51966361875000 4.61207991875000 
 N -2.25175481562500 1.25371161875000 4.75960891875000 
 N -2.21969081562500 5.17535661875000 4.39472591875000 
 N -4.41645381562500 1.00424661875000 3.53677691875000 
 N -4.32295781562500 4.12484261875000 3.36565791875000 
 N -5.16880581562500 1.20936961875000 7.36629391875000 
 N -5.00812181562500 4.88981861875001 7.11053891875000 
 S -5.88824981562500 0.903835618750004 5.90141991875000 
 S -5.84859181562500 4.49961361875001 5.74240091875000 
 S -2.83473681562500 1.02298961875000 3.17076891875000 
 S -2.76814681562500 4.47553961875000 2.92938291875000 
 S -3.52065681562500 1.42817561875000 7.28668291875000 
 S -3.38195681562500 5.41014561875000 6.94491991875000 
