16

 C -3.34380141250000 1.47970534687500 5.57174375312500 
 C -3.03600941250000 5.16941634687500 5.68957275312500 
 C -4.57305641250000 1.17570134687500 4.90409775312500 
 C -4.35506041250000 4.97214034687500 5.15063875312500 
 N -2.35252741250000 1.71589534687500 4.69229375312500 
 N -2.06705141250000 5.16474634687500 4.78965575312500 
 N -4.54606641250000 1.23889834687500 3.58438775312500 
 N -4.34477141250000 4.85057534687500 3.83251875312500 
 N -5.24220441250000 1.43805534687500 7.37396875312500 
 N -4.62432241250000 5.29342134687500 7.73566075312500 
 S -5.93871141250000 0.895366346874997 5.93671375312500 
 S -5.60022241250000 4.96039434687500 6.36232875312500 
 S -2.99244541250000 1.53006934687500 3.19860775312500 
 S -2.74654141250000 4.99948934687500 3.33552075312500 
 S -3.61927141250000 1.76754234687500 7.28595075312500 
 S -3.01235841250000 5.28208534687500 7.39943375312500 
