16

 C -3.09318961562500 1.49357528750000 5.55869512812500 
 C -3.31811961562500 5.15440628750000 5.22181912812500 
 C -4.28032561562500 1.05433728750000 4.76153212812500 
 C -4.38203961562500 4.40374228750000 4.62131012812500 
 N -1.95312761562500 1.59259028750000 4.89916912812500 
 N -2.20452661562500 5.17705628750000 4.47642612812500 
 N -3.95587361562500 0.808105287500003 3.49971112812500 
 N -4.16270561562500 3.89693928750000 3.41686212812500 
 N -5.06298261562500 1.21408828750000 7.23997712812500 
 N -5.34953361562500 5.31065628750000 6.81407312812500 
 S -5.72272461562500 0.887679287500003 5.70212812812500 
 S -5.77108561562500 4.27492828750000 5.60691312812500 
 S -2.34406361562500 1.20572328750000 3.35963112812500 
 S -2.56377261562500 4.40481228750000 3.04369612812500 
 S -3.41499661562500 1.64583228750000 7.26389612812500 
 S -3.75094761562500 5.74226628750000 6.84464412812500 
