16

 C -3.42689677187500 1.59471290000001 5.44239659062500 
 C -3.16452477187500 5.72531990000001 5.61810159062500 
 C -4.51510677187500 0.939002900000006 4.83306659062500 
 C -4.15332377187500 4.93090490000001 4.98147459062500 
 N -2.32519577187500 1.62864590000001 4.72011659062500 
 N -2.17240777187500 6.08584590000001 4.78837759062500 
 N -4.27560477187500 0.475966900000006 3.61389559062500 
 N -4.00048777187500 4.78585290000001 3.62938259062500 
 N -5.12449577187500 1.18319090000001 7.29015759062500 
 N -4.84825577187500 5.09768590000001 7.43696159062500 
 S -5.83809977187500 0.784689900000005 5.84297359062500 
 S -5.47333677187500 4.56868990000001 6.02863059062500 
 S -2.69232877187500 1.01081690000001 3.24566259062500 
 S -2.58813877187500 5.49427690000001 3.26722359062500 
 S -3.53048377187500 1.53979290000001 7.19039959062500 
 S -3.31788377187500 5.73422290000001 7.38886859062500 
