16

 C -3.06590053125000 1.22318516875000 5.30360465937500 
 C -2.85865253125000 4.98758516875000 5.73602365937500 
 C -4.23885553125000 0.815757168749998 4.60915065937500 
 C -4.06304453125000 4.50429516875000 5.11422965937500 
 N -2.07366153125000 1.61355116875000 4.50697765937500 
 N -1.90545253125000 5.29809716875000 4.85383665937500 
 N -4.21458453125000 0.920345168749998 3.29200565937500 
 N -3.99326753125000 4.27395116875000 3.79256965937500 
 N -4.91629453125000 0.720752168749998 7.16418865937500 
 N -4.53686753125000 4.72346816875000 7.66256565937500 
 S -5.56369553125000 0.307873168749998 5.68604965937500 
 S -5.40237753125000 4.43563916875000 6.26863765937500 
 S -2.65425653125000 1.35925516875000 2.91567565937500 
 S -2.48017453125000 4.84854816875000 3.34098465937500 
 S -3.35977853125000 1.28059016875000 7.10966665937500 
 S -2.96858653125000 5.28048516875000 7.44234965937500 
