16

 C -3.25370855000000 1.11058174375000 5.59839123437500 
 C -3.11582255000000 5.16769274375000 5.53721123437500 
 C -4.42999455000000 0.628564743749997 4.94148423437500 
 C -4.31276655000000 4.67782574375000 4.89505223437500 
 N -2.22104855000000 1.33930474375000 4.80343523437500 
 N -2.06452955000000 5.31001974375000 4.71272423437500 
 N -4.33918955000000 0.684676743749997 3.61072423437500 
 N -4.19803655000000 4.58174774375000 3.55070523437500 
 N -5.01500755000000 1.05280374375000 7.49086523437500 
 N -4.71262455000000 4.63247974375000 7.49910923437500 
 S -5.75304455000000 0.402240743749998 6.12407423437500 
 S -5.51943255000000 4.29952974375000 6.08957223437500 
 S -2.72485755000000 0.982194743749997 3.26408823437500 
 S -2.57676355000000 4.93918374375000 3.24038723437500 
 S -3.42450355000000 1.45899674375000 7.38278223437500 
 S -3.17440455000000 5.20700874375000 7.28923023437500 
