16

 C -2.84157826875000 1.27548869062500 5.77508051250000 
 C -3.08883726875000 4.67605569062500 5.51829551250000 
 C -4.09314226875000 1.08897469062500 5.06560151250000 
 C -4.24518026875000 4.32344269062500 4.75429751250000 
 N -1.79813326875000 1.33366169062500 4.97821351250000 
 N -1.90600026875000 4.71629169062500 4.88968251250000 
 N -4.05641426875000 1.10025669062500 3.75368651250000 
 N -3.97299626875000 4.15160169062500 3.43442551250000 
 N -4.91157326875000 1.63059869062500 7.48638151250000 
 N -5.02779926875000 4.92705669062500 7.15744451250000 
 S -5.48400526875000 1.20862669062500 5.95984151250000 
 S -5.76265726875000 4.33323769062500 5.81677351250000 
 S -2.40756726875000 1.12740369062500 3.39172451250000 
 S -2.26645626875000 4.38139069062500 3.31724851250000 
 S -3.16584526875000 1.56425369062500 7.53066051250000 
 S -3.40156826875000 5.05773269062500 7.17184851250000 
