16

 C -2.84051208750000 1.69648918750000 5.52087165625000 
 C -3.19897508750000 5.07939718750000 5.69297265625000 
 C -4.11664208750000 1.33499718750000 4.95553565625000 
 C -4.41120608750000 4.72600918750000 5.01563165625000 
 N -1.98068508750000 1.98758518750000 4.52569265625000 
 N -2.23646208750000 5.37578418750000 4.81752365625000 
 N -4.10912708750000 1.20216818750000 3.62020665625000 
 N -4.31745508750000 4.47730218750000 3.71362465625000 
 N -4.49913708750000 1.70589318750000 7.49613565625000 
 N -4.93850408750000 4.98970518750000 7.51833165625000 
 S -5.36800008750000 1.45668418750000 6.13669465625000 
 S -5.70941208750000 4.64041218750000 6.14469365625000 
 S -2.57306308750000 1.51011418750000 3.06141665625000 
 S -2.79053008750000 4.93712718750000 3.29135365625000 
 S -2.91567208750000 1.97808918750000 7.22253965625000 
 S -3.31863808750000 5.27302918750000 7.45828965625000 
