16

 C -3.33822700625000 1.02216483750000 5.66137620000000 
 C -2.92798600625000 5.10738183750000 5.57850120000000 
 C -4.52250700625000 0.653798837499997 4.90053220000000 
 C -4.13044000625000 4.66763683750000 4.89512520000000 
 N -2.27881000625000 1.15256083750000 4.88151420000000 
 N -1.92477400625000 5.16866183750000 4.70006520000000 
 N -4.38010900625000 0.373524837499997 3.63050920000000 
 N -4.07072000625000 4.35723883750000 3.60853320000000 
 N -5.21242500625000 0.869744837499997 7.29160020000000 
 N -4.71242400625000 4.79464683750000 7.36848620000000 
 S -5.88213900625000 0.251958837499997 5.89690820000000 
 S -5.42665500625000 4.30382783750000 5.96629020000000 
 S -2.85409600625000 0.888592837499997 3.35296520000000 
 S -2.46949600625000 4.76027383750000 3.19573720000000 
 S -3.61380200625000 1.25310083750000 7.31603120000000 
 S -3.14900400625000 5.36745383750000 7.29028620000000 
