16

 C -2.84833694375000 1.86454400312500 5.38744678437500 
 C -3.11548794375000 5.22331700312500 5.48385978437500 
 C -4.10918394375000 1.48506800312500 4.77662878437500 
 C -4.33897394375000 4.82329200312500 4.77469878437500 
 N -1.79038294375000 1.77073400312500 4.58957978437500 
 N -2.00297894375000 5.24972500312500 4.75476078437500 
 N -4.05244094375000 1.28081000312500 3.44774078437500 
 N -4.12909894375000 4.56131000312500 3.46039278437500 
 N -4.62115594375000 1.72156700312500 7.28956078437500 
 N -4.93111594375000 4.91019200312500 7.31400378437500 
 S -5.43170594375000 1.38712300312500 5.88521078437500 
 S -5.71902194375000 4.63254000312500 5.85500478437500 
 S -2.48141894375000 1.45341300312500 3.06396678437500 
 S -2.48884794375000 4.85413300312500 3.21967978437500 
 S -3.02864294375000 2.14824700312500 7.12685078437500 
 S -3.31818494375000 5.27990900312500 7.19387478437500 
