16

 C -3.09904992500000 1.20890501250000 5.72117494375000 
 C -2.84889092500000 4.67492801250000 5.49306494375000 
 C -4.46777692500000 0.998069012500004 5.32273694375000 
 C -4.11549292500000 4.56416101250000 4.82534394375000 
 N -2.11700192499999 0.925949012500004 4.85690394375000 
 N -1.86822192499999 4.79627001250000 4.60281494375000 
 N -4.55771292500000 0.573265012500004 4.05674094375000 
 N -4.10550592500000 4.52240301250001 3.52590994375000 
 N -4.57332792500000 1.73360401250000 7.73641594375000 
 N -4.67692192499999 4.57590701250000 7.32357494375000 
 S -5.64357992500000 1.31865401250001 6.53069294375000 
 S -5.44503192499999 4.53774001250000 5.91554394375000 
 S -2.96225792500000 0.627780012500004 3.45066394375000 
 S -2.48680492500000 4.78000901250000 3.05200794375000 
 S -2.96888792500000 1.77944801250000 7.32525494375000 
 S -3.02075092500000 4.87738301250000 7.20718394375000 
