16

 C -3.03634782187500 1.26939265937500 5.64817299375000 
 C -3.08736482187500 5.10825365937500 5.41550499375000 
 C -4.23827582187500 0.834319659375002 4.96787999375000 
 C -4.18711382187500 4.36365365937500 4.87845799375000 
 N -1.96651282187500 1.37914465937500 4.85909699375000 
 N -2.08013482187500 5.33166565937500 4.55890699375000 
 N -3.99966882187500 0.536583659375002 3.66199399375000 
 N -3.92913782187500 3.77637965937500 3.70707399375000 
 N -4.81325982187500 0.917724659375002 7.51306499375000 
 N -4.82754482187500 5.18099865937500 7.26059399375000 
 S -5.56132682187500 0.639436659375002 6.08227199375000 
 S -5.40428982187500 4.16228965937500 6.12145399375000 
 S -2.39880382187500 1.01924065937500 3.30461899375000 
 S -2.49937882187500 4.46521465937500 3.16875099375000 
 S -3.24277882187500 1.60891365937500 7.37610299375000 
 S -3.35294082187500 5.83766465937500 6.99090799375000 
