16

 C -3.03969463125000 1.45289581562500 5.56072991875000 
 C -3.41671863125000 5.17147881562500 5.15824591875000 
 C -4.22447363125000 0.942642815625002 4.85202491875000 
 C -4.41027863125000 4.34803081562500 4.55863991875000 
 N -1.99153763125000 1.49462881562500 4.74015591875000 
 N -2.31181563125000 5.31000881562500 4.45185491875000 
 N -4.03040163125000 0.775441815625001 3.56654791875000 
 N -4.13910763125000 3.96862981562500 3.30115391875000 
 N -4.91196563125000 1.07278381562500 7.32875291875000 
 N -5.16863663125000 5.02614681562500 6.98750191875000 
 S -5.59903563125000 0.755227815625002 5.83491691875000 
 S -5.72423263125000 4.10703381562500 5.67841491875000 
 S -2.40345463125000 1.14723681562500 3.16554191875000 
 S -2.55533863125000 4.52318381562500 3.03342891875000 
 S -3.38623363125000 1.72698981562500 7.23121191875000 
 S -3.76565463125000 5.83781181562500 6.65893291875000 
