16

 C -3.20687221250000 0.920802165625002 5.42984100000000 
 C -3.16543921250000 4.55156816562500 5.54744500000000 
 C -4.43903221250001 0.483772165625002 4.75854400000000 
 C -4.44873221250000 4.69090816562500 4.97901700000000 
 N -2.23794921250001 1.32988616562500 4.58938700000000 
 N -2.18930221250000 4.37397216562500 4.68686500000000 
 N -4.39904621250001 0.565904165625002 3.41476000000000 
 N -4.47210121250000 4.77432616562500 3.64682200000000 
 N -4.80624221250001 0.496437165625002 7.36756000000000 
 N -4.83847221250000 4.74758316562500 7.46807300000000 
 S -5.68307221250001 0.211115165625002 5.96287500000000 
 S -5.71685721250001 4.70242016562500 6.09800700000000 
 S -2.85373821250001 1.21031616562500 3.08981900000000 
 S -2.86177021250001 4.50819916562500 3.16765100000000 
 S -3.22525621250001 0.927865165625002 7.13666200000000 
 S -3.22607121250000 4.84491016562500 7.23545600000000 
