16

 C -3.30613781562500 1.29837528437500 5.25548030312500 
 C -3.18699981562500 5.35839628437500 5.58464130312500 
 C -4.52039781562500 0.717903284375000 4.75517430312500 
 C -4.33888481562500 5.11515928437500 4.79442130312500 
 N -2.29175281562500 1.45583528437500 4.38056930312500 
 N -2.10199581562500 5.51632328437500 4.82905330312500 
 N -4.51516381562500 0.602986284375000 3.44388930312500 
 N -4.20660781562500 5.18234728437500 3.46051230312500 
 N -4.98897081562500 1.05153428437500 7.29503130312500 
 N -5.11199081562500 5.00814128437500 7.21981730312500 
 S -5.83508081562500 0.470898284375000 5.91916330312500 
 S -5.75833281562500 5.02796928437500 5.71093430312500 
 S -2.98897381562500 0.897509284374999 2.91024230312500 
 S -2.60783581562500 5.41766228437500 3.21726130312500 
 S -3.45037881562500 1.58561428437500 6.97321230312500 
 S -3.48705581562500 5.16018828437500 7.25022730312500 
