16

 C -3.16331096562500 0.815169659374999 5.68755896562500 
 C -3.01604196562500 5.07669065937500 5.44478096562500 
 C -4.39515096562500 0.554792659374999 4.88373496562500 
 C -4.18729196562500 4.66339165937500 4.73329396562500 
 N -2.10512696562500 1.10199465937500 4.92200396562500 
 N -1.97201696562500 5.27221065937500 4.61837096562500 
 N -4.20954496562500 0.572782659374999 3.58076396562500 
 N -4.00619396562500 4.33047765937500 3.44436996562500 
 N -5.10988196562500 0.707508659374999 7.31906496562500 
 N -4.79628296562500 4.79994565937500 7.22256596562500 
 S -5.84251196562500 0.328848659374999 5.81696596562500 
 S -5.46759796562500 4.23613665937500 5.81284296562500 
 S -2.61908996562500 0.925701659374999 3.39169496562500 
 S -2.41249396562500 4.72796465937500 3.17126896562500 
 S -3.45615496562500 0.984687659374999 7.40033096562500 
 S -3.19355596562500 5.18458665937500 7.17660396562500 
