16

 C -2.98360326875000 1.68842891562500 5.43380986875000 
 C -3.12055126875000 5.19025191562500 5.65699986875000 
 C -4.31171626875000 1.38096791562500 4.90125486875000 
 C -4.30010026875000 4.76102491562500 4.92938786875000 
 N -2.04272526875000 1.91976391562500 4.54340786875000 
 N -2.08034726875000 5.54302791562500 4.91787986875000 
 N -4.24928926875000 1.16745791562500 3.60020686875000 
 N -4.02596526875000 4.59677491562500 3.61358186875000 
 N -4.51227826875000 1.26020391562500 7.42678086875000 
 N -4.83931626875000 4.77379091562500 7.45182286875000 
 S -5.55230626875000 1.23359391562500 6.14414386875000 
 S -5.62258226875000 4.52110591562500 6.01425186875000 
 S -2.69536126875000 1.36312291562500 3.12609786875000 
 S -2.47341626875000 5.10606891562500 3.37049786875000 
 S -2.93931026875000 1.64739691562500 7.16924486875000 
 S -3.26046426875000 5.32506691562500 7.38172486875000 
