16

 C -2.82347667500000 1.45602733124999 5.84426599687500 
 C -3.40210267500000 5.35459333124999 5.60225699687500 
 C -4.10245267500000 1.38478333124999 5.21825799687500 
 C -4.64503367500000 4.97784033124999 4.93510199687500 
 N -1.83668367500000 1.42769033124999 4.96796299687500 
 N -2.33756267500000 5.53108833124999 4.81809999687500 
 N -4.04973867500000 1.31728133124999 3.90049999687500 
 N -4.44838867500000 4.75185733124999 3.64713899687500 
 N -4.60083267500000 1.32965133124999 7.73403099687500 
 N -5.07757867500000 5.01148533124999 7.50878399687500 
 S -5.43059867500000 1.32314533124999 6.29340099687500 
 S -5.96009567500000 4.74327133124999 6.08856099687500 
 S -2.45436667500000 1.40253733124999 3.36834899687500 
 S -2.88034567500000 5.05742333124999 3.27139099687500 
 S -2.91510567500000 1.53516033124999 7.59103199687500 
 S -3.44284267500000 5.20457133124999 7.30390899687500 
