16

 C -3.02740571562500 1.62834704687500 5.61455629062500 
 C -3.04966971562500 5.35269804687500 5.59120829062500 
 C -4.12358871562500 0.965536046875002 5.00172129062500 
 C -4.27229571562500 4.89809804687500 4.95196129062500 
 N -1.98221971562500 1.81058804687500 4.83611829062500 
 N -2.04843771562500 5.37623404687500 4.74783629062500 
 N -3.98371971562500 0.765113046875002 3.71469329062500 
 N -4.21856571562500 4.58584404687500 3.66036029062500 
 N -4.71380671562500 1.49303904687500 7.45540629062500 
 N -4.84917671562500 5.36330004687500 7.39660429062500 
 S -5.43347471562500 0.777732046875002 6.09592429062500 
 S -5.63344671562500 4.89298504687500 6.02082429062500 
 S -2.39376871562500 1.28249104687500 3.32214729062500 
 S -2.61444371562500 5.00706504687500 3.20523929062500 
 S -3.19563071562500 2.11058104687500 7.23394429062500 
 S -3.24987671562500 5.74748804687500 7.29395429062500 
