16

 C -3.08297774687500 1.51794530625000 5.57194662812500 
 C -2.96843874687500 5.34225930625000 5.44086862812500 
 C -4.32570374687500 1.00745630625000 5.11073662812500 
 C -4.20683274687500 4.89395830625000 4.79372762812500 
 N -2.15516074687500 1.64134630625000 4.63721862812500 
 N -2.02906074687500 5.54936030625000 4.56659362812500 
 N -4.29888474687500 0.680723306249998 3.82111662812500 
 N -4.12083074687500 4.73052230625000 3.48901762812500 
 N -4.60628774687500 1.17686530625000 7.60752662812500 
 N -4.54534774687500 4.86418530625000 7.32315662812500 
 S -5.55480374687500 0.829673306249998 6.27958662812500 
 S -5.44856974687500 4.64750330625000 5.98909362812500 
 S -2.83245774687500 1.14493030625000 3.21658862812500 
 S -2.58168674687500 5.23753330625000 3.02542962812500 
 S -3.03792874687500 1.60326130625000 7.39626362812500 
 S -2.98597474687500 5.42094430625000 7.14835162812500 
