16

 C -3.13393660937500 1.35267425937500 5.46958142500000 
 C -3.15159560937500 4.94490325937500 5.59765542500000 
 C -4.35390160937500 0.860955259375002 4.88714742500000 
 C -4.39055560937500 4.59194625937500 4.91557142500000 
 N -2.14818260937500 1.66707125937500 4.59886042500000 
 N -2.20095960937500 5.39908325937500 4.79854142500000 
 N -4.28326060937500 0.650953259375002 3.56251742500000 
 N -4.25137860937500 4.49533325937500 3.60700742500000 
 N -4.81368560937500 1.11849425937500 7.44946242500000 
 N -4.91315560937500 4.81570625937500 7.40196342500000 
 S -5.67158360937500 0.848780259375002 6.07413942500000 
 S -5.69282160937500 4.40175625937500 6.04186342500000 
 S -2.67152660937500 1.04735425937500 3.09525342500000 
 S -2.75229460937500 5.13659425937500 3.22534742500000 
 S -3.20922360937500 1.61235525937500 7.29346342500000 
 S -3.33055860937500 5.08408225937500 7.32965242500000 
