16

 C -3.59235948125000 1.37392073750000 5.77999827500000 
 C -3.32154948125000 5.20310473750000 5.31927427500000 
 C -4.62040348125000 0.815460737500000 5.01027427500000 
 C -4.52630348125000 4.59525173750000 4.75632327500000 
 N -2.40433248125000 1.55821773750000 5.19428627500000 
 N -2.31169148125000 5.31430873750000 4.47865127500000 
 N -4.28837548125000 0.681014737499999 3.73856327500000 
 N -4.38858048125000 4.27602273750000 3.48187727500000 
 N -5.49938248125000 0.851309737499999 7.29526027500000 
 N -4.82447548125000 4.84213673750000 7.36596427500000 
 S -6.14108548125000 0.539137737499999 5.76903127500000 
 S -5.75393248125000 4.44698573750000 5.98200127500000 
 S -2.71910448125000 1.17227773750000 3.63400327500000 
 S -2.83417648125000 4.82651673750000 3.03146227500000 
 S -3.96843548125000 1.44670173750000 7.44266227500000 
 S -3.26731048125000 5.36815673750000 7.05285227500000 
