16

 C -3.24814235937500 1.38059216562500 5.57268959062500 
 C -3.20347235937500 4.99034916562500 5.68099859062500 
 C -4.47109135937500 0.866744165625000 4.99286259062500 
 C -4.36231635937500 4.40773816562500 5.09326559062500 
 N -2.23160135937500 1.37839016562500 4.69372559062500 
 N -2.15446035937500 5.08542216562500 4.83529759062500 
 N -4.38539635937500 0.410431165625000 3.74594359062500 
 N -4.25776935937500 4.13481916562500 3.79544059062500 
 N -4.89073535937500 1.23098616562500 7.56681559062500 
 N -4.89626035937500 4.82972916562500 7.49127659062500 
 S -5.75521835937500 0.866674165625000 6.19517459062500 
 S -5.62093235937500 4.28953916562500 6.14337459062500 
 S -2.87647835937500 0.785971165625000 3.23132659062500 
 S -2.74361235937500 4.60023016562500 3.37385859062500 
 S -3.22444135937500 1.76061916562500 7.29950559062500 
 S -3.33528135937500 5.19295116562500 7.37947259062500 
