16

 C -2.84987532187501 1.61426895937500 5.74776832500000 
 C -3.28888232187501 5.34825195937500 5.44798632500000 
 C -4.14316532187501 1.48003695937500 5.10261432500000 
 C -4.53839732187501 4.88880495937500 4.89474332500000 
 N -1.81035132187501 1.76380895937500 4.91770432500000 
 N -2.34422032187501 5.57327295937500 4.54008232500000 
 N -4.10266932187501 1.34711895937500 3.75897032500000 
 N -4.56497332187501 4.84892295937500 3.56656132500000 
 N -4.61788032187501 1.54969795937500 7.68262532500000 
 N -5.03231132187501 5.07968195937500 7.38642332500000 
 S -5.50052932187501 1.43604795937500 6.28564832500000 
 S -5.82758632187501 4.57170695937500 6.00211532500000 
 S -2.50406132187501 1.63548795937500 3.39897632500000 
 S -3.03946432187501 5.30438095937500 3.08734532500000 
 S -2.95637032187501 1.60894395937500 7.57469532500000 
 S -3.45912532187501 5.65442895937500 7.20315832500000 
