16

 C -3.36565406250000 1.55215450000000 5.45265985625000 
 C -3.09253106250000 5.44358650000000 5.63654585625000 
 C -4.48157306250000 0.959496500000001 4.71611685625000 
 C -4.27525506250000 4.89858850000000 4.98404585625000 
 N -2.26670606250000 1.66765050000000 4.72463985625000 
 N -2.14693706250000 5.68792450000000 4.76797485625000 
 N -4.27178306250000 0.717216500000002 3.44860985625000 
 N -4.32857706250000 4.89722250000000 3.68130385625000 
 N -5.30281206250000 1.35521150000000 7.21127985625000 
 N -4.76585706250000 5.10624650000000 7.50611385625000 
 S -5.85352206250000 0.733590500000002 5.75492285625000 
 S -5.54754106250000 4.64071750000000 6.13339385625000 
 S -2.75169406250000 1.26694750000000 3.17381985625000 
 S -2.72084106250000 5.40882750000000 3.24731185625000 
 S -3.75340606250000 1.97491750000000 7.15494685625000 
 S -3.21997006250000 5.56966150000000 7.39388585625000 
