16

 C -3.04619226875000 1.61136165625000 5.69321517500000 
 C -3.06054826875000 5.26153165625000 5.77053717500000 
 C -4.15276526875000 0.887176656250004 5.07053317500000 
 C -4.29276126875000 4.90275565625000 5.12193817500000 
 N -1.98268826875000 1.73676965625000 4.87726417500000 
 N -2.03402326875000 5.33293165625000 4.92742517500000 
 N -3.89894426875000 0.611097656250005 3.78290517500000 
 N -4.22377426875000 4.79475965625000 3.80258617500000 
 N -4.89309726875000 1.42841065625000 7.56322217500000 
 N -4.88492626875000 5.21322765625000 7.57227017500000 
 S -5.55476626875000 0.780609656250005 6.19871717500000 
 S -5.69029826875000 4.82974165625000 6.18261717500000 
 S -2.35914526875000 1.22373465625000 3.38636117500000 
 S -2.64340726875000 5.04791765625000 3.43289417500000 
 S -3.33788426875000 2.00227465625000 7.34981517500000 
 S -3.30757126875000 5.58573365625000 7.44000317500000 
