16

 C -2.83611809687500 1.30323168750000 5.71910102187500 
 C -2.93584309687500 4.89359068750000 5.40319602187500 
 C -4.15618909687500 1.20856768750000 5.21361402187500 
 C -4.15413109687500 4.54910668750000 4.67128402187500 
 N -1.91754409687500 0.984991687500005 4.75713802187500 
 N -1.84311809687500 4.88881968750000 4.63850702187500 
 N -4.36912909687500 0.726462687500004 3.99678102187500 
 N -4.01866009687500 4.30745568750001 3.38671802187500 
 N -4.56843009687500 1.63800668750001 7.66957102187500 
 N -4.76648509687500 4.88667068750000 7.24520202187500 
 S -5.49406309687500 1.42428668750000 6.29121102187500 
 S -5.57371609687500 4.51901668750001 5.89330302187500 
 S -2.81672809687500 0.580684687500004 3.38124702187500 
 S -2.33351609687500 4.47157368750001 3.13717302187500 
 S -2.88142209687500 1.53227468750001 7.42803002187500 
 S -3.03490309687500 4.85201468750000 7.09814902187500 
