16

 C -3.19454090312500 1.17897778437500 5.52134370625000 
 C -3.12069690312500 5.49696178437500 5.69937770625000 
 C -4.41739890312500 0.744713784375003 4.91588070625000 
 C -4.22595490312500 4.88315878437500 5.02418570625000 
 N -2.20598590312500 1.33907578437500 4.61755070625000 
 N -2.14666490312500 5.94191178437500 4.90224170625000 
 N -4.37867090312500 0.596458784375003 3.60831670625000 
 N -4.11125090312500 4.86434578437500 3.68406470625000 
 N -4.98272490312500 0.860580784375003 7.44150470625000 
 N -4.82676490312500 4.69958378437500 7.43726470625000 
 S -5.78577890312500 0.476839784375003 5.99849770625000 
 S -5.56802490312500 4.34780278437500 6.03374570625000 
 S -2.83333690312500 1.15303878437500 3.13365570625000 
 S -2.68372090312500 5.57588478437500 3.34293870625000 
 S -3.38188490312500 1.23114278437500 7.26725170625000 
 S -3.33176890312500 5.42033478437500 7.38668870625000 
