16

 C -2.86995287187500 1.34287312500000 5.82302522187500 
 C -3.24774087187500 5.04035212500000 5.66568922187500 
 C -4.17963787187500 1.29787512500000 5.17344422187500 
 C -4.51894187187500 4.84517012500000 4.98331722187500 
 N -1.82538487187500 1.41998012500000 5.01338122187500 
 N -2.18942487187500 5.09223912500000 4.86038822187500 
 N -4.05560287187500 1.25741312500000 3.85974122187500 
 N -4.46622487187500 4.77345612500000 3.65420422187500 
 N -4.59958887187500 1.41613812500000 7.64861522187500 
 N -5.08496687187500 4.84028612500000 7.48373322187500 
 S -5.45422787187500 1.25930712500000 6.28251122187500 
 S -5.85334287187500 4.62137412500000 5.99766422187500 
 S -2.47424987187500 1.32166012500000 3.44937522187500 
 S -2.88312887187500 4.89783812500001 3.28154822187500 
 S -2.94574887187500 1.55505912500000 7.48504322187500 
 S -3.42891487187500 5.11098312500000 7.43546222187500 
