16

 C -3.04349766250000 1.58761156875000 5.48494315312500 
 C -3.07431366250000 5.31651056875000 5.50966515312500 
 C -4.27661966250000 1.19993856875000 4.78887915312500 
 C -4.30608366250000 5.04225656875000 4.80745715312500 
 N -1.99316366250000 1.81152956875000 4.68815115312500 
 N -2.02749266250000 5.33420156875000 4.69126915312500 
 N -4.09968566250000 0.963796568749999 3.48408715312500 
 N -4.16279566250000 4.81884756875000 3.47827415312500 
 N -4.82542966250000 1.39538156875000 7.38349315312500 
 N -4.76479566250000 5.08082856875000 7.36602015312500 
 S -5.57795166250000 0.995473568749999 5.95556615312500 
 S -5.62302566250000 4.87367756875000 5.97244015312500 
 S -2.52498066250000 1.37186256875000 3.17118215312500 
 S -2.58055566250000 5.10725156875000 3.17845315312500 
 S -3.18498166250000 1.77379356875000 7.23725315312500 
 S -3.13450666250000 5.49959856875000 7.22776615312500 
