16

 C -3.25118790937500 1.41952206562500 5.58930568750000 
 C -3.10327090937500 5.18406506562500 5.48384168750000 
 C -4.41871890937500 1.23458806562500 4.83364868750000 
 C -4.31200290937500 4.76013706562500 4.84375368750000 
 N -2.16511790937500 1.79912706562500 4.95397368750000 
 N -2.08050690937500 5.36144806562500 4.66569968750000 
 N -4.23470390937500 1.29793706562500 3.49992068750000 
 N -4.21108490937500 4.75756106562500 3.50278168750000 
 N -5.04959690937500 1.05904906562500 7.35799468750000 
 N -4.78758590937500 5.30617906562500 7.29993868750000 
 S -5.75593190937500 0.840533065624999 5.90671668750000 
 S -5.66621190937500 4.65505206562500 6.00198868750000 
 S -2.63060390937500 1.77367406562500 3.29492168750000 
 S -2.58067290937500 5.07071406562500 3.12960268750000 
 S -3.42533090937500 1.13560106562500 7.32756668750000 
 S -3.11171690937500 5.46205506562500 7.22127768750000 
