16

 C -3.11137499375000 1.60990920937500 5.46469355312500 
 C -3.05271099375000 5.31664920937500 5.47889555312500 
 C -4.31066399375000 1.19586220937500 4.83456955312500 
 C -4.29714499375000 4.97274220937500 4.83358355312500 
 N -2.09425099375000 1.83779220937500 4.67126255312500 
 N -2.01394999375000 5.40869820937500 4.66464955312500 
 N -4.17423099375000 1.07542020937500 3.51973955312500 
 N -4.20261999375000 4.84280120937500 3.52310455312500 
 N -4.76609699375000 1.37206620937500 7.32800955312500 
 N -4.78076699375000 5.00668420937500 7.41450455312500 
 S -5.63175599375000 1.05366620937500 5.90123155312500 
 S -5.59159399375000 4.91675820937500 5.93817755312500 
 S -2.49884799375000 1.38033020937500 3.19180255312500 
 S -2.58570899375000 5.12336020937500 3.13314755312500 
 S -3.17361399375000 1.69792820937500 7.15832055312500 
 S -3.13635899375000 5.42024320937500 7.24164755312500 
