16

 C -3.04818255625000 1.74258553125000 5.38874885625000 
 C -3.51158055625000 5.03193753125000 5.11696485625000 
 C -4.11089555625000 0.836693531250002 4.88006185625000 
 C -4.58844855625000 4.29210453125000 4.53167285625000 
 N -2.03802055625000 1.99181053125000 4.54287685625000 
 N -2.50018655625000 5.24931453125000 4.23894885625000 
 N -3.86870755625000 0.422573531250001 3.64963685625000 
 N -4.37596055625000 3.88049953125000 3.29122685625000 
 N -4.68870155625000 1.19842553125000 7.28825785625000 
 N -5.43579955625000 4.89545453125000 6.81333985625000 
 S -5.47756355625000 0.698171531250002 5.91764685625000 
 S -6.03287055625000 4.07084953125000 5.53079185625000 
 S -2.44350455625000 1.09105253125000 3.23627785625000 
 S -2.92155955625000 4.48268853125000 2.84737185625000 
 S -3.39261755625000 2.20098253125000 7.00887685625000 
 S -3.88520355625000 5.38478653125000 6.81207285625000 
