16

 C -3.43678110937500 1.32122840937500 5.38955090625000 
 C -3.28322710937500 5.00551640937500 5.79781890625000 
 C -4.59537710937500 0.965937409375000 4.69316390625000 
 C -4.54845510937500 4.79539940937500 5.15542790625000 
 N -2.39867410937500 1.60106440937500 4.60034290625000 
 N -2.24129610937500 5.21242640937500 4.98597090625000 
 N -4.46186610937500 0.921542409375000 3.32592990625000 
 N -4.41382410937500 4.63390840937500 3.83876290625000 
 N -5.27443710937500 0.867637409375000 7.19996090625000 
 N -5.06117810937500 4.93985740937500 7.68381490625000 
 S -5.97881510937500 0.530671409375000 5.70547490625000 
 S -5.89243410937500 4.43461640937500 6.31728090625000 
 S -2.88592110937500 1.54359840937500 3.03773190625000 
 S -2.87076310937500 4.93006740937500 3.44489590625000 
 S -3.75606110937500 1.53557240937500 7.06391090625000 
 S -3.44001510937500 5.17984140937500 7.49524290625000 
