16

 C -3.18117355625000 1.14266437500000 5.53507063437500 
 C -3.12471155625000 5.40760037500000 5.61734963437500 
 C -4.44335055625000 0.790206374999997 4.87231863437500 
 C -4.30944255625000 4.94980837500000 4.90942163437500 
 N -2.13593455625000 1.43688937500000 4.69335563437500 
 N -2.13389955625000 5.85589437500000 4.79726563437500 
 N -4.33091955625000 0.733081374999997 3.53201063437500 
 N -4.14106055625000 4.86674237500000 3.57954563437500 
 N -4.98047255625000 0.973653374999997 7.38173363437500 
 N -4.84086055625000 4.76933937500000 7.46874063437500 
 S -5.76749855625000 0.464408374999997 6.04706563437500 
 S -5.50361355625000 4.35336037500000 5.97398263437500 
 S -2.76913055625000 1.05103137500000 3.13948363437500 
 S -2.63886555625000 5.59356837500000 3.25648363437500 
 S -3.31458055625000 1.24834737500000 7.24096763437500 
 S -3.36856655625000 5.49479737500000 7.34668263437500 
