16

 C -3.13035226250000 1.46172300625000 5.48832963125000 
 C -3.28541426250000 5.09947200625000 5.40854263125000 
 C -4.31419926250000 0.843714006249998 4.80472863125000 
 C -4.53709226250000 4.69142300625000 4.83244863125000 
 N -2.06218826250000 1.55715500625000 4.68972063125000 
 N -2.29878126250000 5.08573700625000 4.52357563125000 
 N -4.00562326250000 0.427910006249999 3.55814563125000 
 N -4.46440726250000 4.27959700625000 3.57763563125000 
 N -4.97043926250000 1.43286800625000 7.26606663125000 
 N -4.97584926250000 5.28162600625000 7.34120863125000 
 S -5.66655226250000 0.721488006249999 5.93375163125000 
 S -5.80291926250000 4.62004300625000 6.02054363125000 
 S -2.50807026250000 0.975471006249998 3.20589963125000 
 S -2.91893126250000 4.61355700625000 3.05938663125000 
 S -3.39241826250000 1.88968500625000 7.08351863125000 
 S -3.36094826250000 5.64636900625000 7.06891563125000 
