16

 C -3.13061967500000 1.37974252187500 5.52730801250000 
 C -2.89917167500000 5.18585352187500 5.88743801250000 
 C -4.32303067500000 0.977888521875001 4.87732201250000 
 C -4.06691867500000 4.75029152187500 5.17018301250000 
 N -2.15544067500000 1.68099852187500 4.67648201250000 
 N -1.86594467500000 5.49079952187500 5.08569301250000 
 N -4.19062367500000 0.815271521875001 3.57474901250000 
 N -3.84508867500000 4.55537052187500 3.85571601250000 
 N -4.87659067500000 0.796777521875001 7.33477001250000 
 N -4.76678367500000 4.84399952187500 7.64375901250000 
 S -5.67175267500000 0.678327521875000 5.87996401250000 
 S -5.52364167500000 4.66779652187500 6.18658301250000 
 S -2.72629467500000 1.46490052187500 3.16968501250000 
 S -2.32545167500000 5.11361452187500 3.57007901250000 
 S -3.27903767500000 1.32376352187500 7.27260601250000 
 S -3.18304467500000 5.37034752187500 7.56560701250000 
