16

 C -3.23906332500000 1.52506863437500 5.33148510937500 
 C -3.32920332500000 5.33228063437500 5.50951610937500 
 C -4.42804532500000 0.802692634375000 4.76896610937500 
 C -4.47265032500000 4.68785163437500 4.86623910937500 
 N -2.27727732500000 1.85467163437500 4.46803310937500 
 N -2.41393132500000 5.79210263437500 4.65885810937500 
 N -4.38542732500000 0.657227634374999 3.43730610937500 
 N -4.39553932500000 4.55283063437500 3.54263410937500 
 N -4.91537732500000 1.11787363437500 7.29712810937500 
 N -4.96441032500000 4.90367363437500 7.42984710937500 
 S -5.68456632500000 0.447031634375000 5.95178110937500 
 S -5.74764832500000 4.41439863437500 5.99782510937500 
 S -2.91298032500000 1.33160763437500 2.98503710937500 
 S -2.89566732500000 5.29779163437500 3.16581210937500 
 S -3.33875532500000 1.64724463437500 7.10409610937500 
 S -3.38874732500000 5.39260163437500 7.20348910937500 
