16

 C -2.86009083437500 1.16376143125000 5.48203072812500 
 C -3.03600683437500 5.13555343125000 5.62320772812500 
 C -4.11955483437500 0.949944431250000 4.80788672812500 
 C -4.20796683437500 4.60999743125000 4.98069872812500 
 N -1.84286883437500 1.28627943125000 4.68862372812500 
 N -1.97120783437500 5.42910743125000 4.87520072812500 
 N -4.00856483437500 0.730611431250000 3.52033672812500 
 N -3.96299383437500 4.38865443125000 3.68694072812500 
 N -4.57619283437500 1.21872143125000 7.26730772812500 
 N -4.74986183437500 4.80544243125000 7.49196072812500 
 S -5.39794583437500 0.838103431250000 5.90706672812500 
 S -5.50514083437500 4.25861443125000 6.10227872812500 
 S -2.37675083437500 1.18287943125000 3.16142372812500 
 S -2.42657183437500 4.93989243125000 3.36779372812500 
 S -2.95831683437500 1.47833543125000 7.15594072812500 
 S -3.21472383437500 5.40196543125000 7.31300972812500 
