16

 C -2.95905490625000 1.48839031250000 5.63639105312500 
 C -3.03085190625000 5.29931131250000 5.36260505312500 
 C -4.24076490625000 1.00313331250000 5.09793005312500 
 C -4.22542590625000 4.86203731250000 4.76476305312500 
 N -2.09578890625000 1.68765131250000 4.63632405312500 
 N -1.94754490625000 5.54351031250000 4.55949505312500 
 N -4.34428390625000 0.821977312500001 3.79023605312500 
 N -4.12900090625000 4.73857231250000 3.41699305312500 
 N -4.68691590625000 1.23338931250000 7.60272005312500 
 N -4.54207090625000 4.83722631250000 7.41458505312500 
 S -5.53772090625000 0.869144312500000 6.26358705312500 
 S -5.44774390625000 4.63571431250000 5.99608005312500 
 S -2.84925890625000 1.17367131250000 3.21933405312500 
 S -2.53361290625000 5.22941731250000 3.10965605312500 
 S -3.05997590625000 1.62213931250000 7.44999105312500 
 S -3.02030890625000 5.43729231250000 7.06614705312500 
