16

 C -3.03799498125000 1.70393557187500 5.40858720625000 
 C -3.53112898125000 4.99070357187500 5.19103020625000 
 C -4.15393798125000 1.03979357187500 4.69887820625000 
 C -4.58740498125000 4.29709157187500 4.53249620625000 
 N -1.96521198125000 1.76012757187500 4.63882420625000 
 N -2.47829598125000 5.16162557187500 4.40161120625000 
 N -3.84170298125000 0.575737571874999 3.52542520625000 
 N -4.34916198125000 3.85654257187500 3.30082220625000 
 N -4.74039198125000 1.28977357187500 7.29123520625000 
 N -5.46060498125000 5.05393357187500 6.94155320625000 
 S -5.46485798125000 0.732358571874999 5.90505220625000 
 S -5.91565098125000 4.09876657187500 5.58662120625000 
 S -2.24870598125000 1.12665657187500 3.09617520625000 
 S -2.87373198125000 4.43557657187500 2.91631720625000 
 S -3.32489598125000 2.17049057187500 7.03580720625000 
 S -3.87673998125000 5.57465657187500 6.78526520625000 
