16

 C -2.90308717187500 1.36889390625000 5.79219554375000 
 C -3.19126417187500 4.90382690625000 5.67679154375000 
 C -4.15151017187500 1.21848190625000 5.18045154375000 
 C -4.46641017187500 4.78211390625000 5.00584654375000 
 N -1.87457017187500 1.43175390625000 4.97100554375000 
 N -2.17809517187500 4.89431690625000 4.81702154375000 
 N -4.08659917187500 1.21122390625000 3.85888754375000 
 N -4.39373517187500 4.73965590625000 3.68856754375000 
 N -4.61289317187500 1.45565190625000 7.68195954375000 
 N -5.06325317187500 4.76114090625000 7.48266854375000 
 S -5.50855417187500 1.24785590625000 6.25152554375000 
 S -5.85531617187500 4.54270890625000 6.01291954375000 
 S -2.44742617187500 1.30401190625000 3.43958654375000 
 S -2.82638317187500 4.84421790625000 3.22902054375000 
 S -2.95621817187500 1.57896490625000 7.47727654375000 
 S -3.41761017187500 5.07202490625000 7.44082054375000 
