16

 C -2.96204996875000 1.91047767500000 5.41851323750000 
 C -3.61921496875000 5.16882567500000 5.53315223750000 
 C -4.02086896875000 1.14439367500000 4.76379823750000 
 C -4.73661796875000 4.51846867500000 4.88651023750000 
 N -1.92241696875000 2.22131267500000 4.61199623750000 
 N -2.64202496875000 5.57977867500000 4.75303923750000 
 N -3.83959796875000 0.902066675000001 3.46252923750000 
 N -4.46331496875000 4.24569467500000 3.61611523750000 
 N -4.61307596875000 1.06565667500000 7.26194823750000 
 N -5.26595696875000 4.76409167500000 7.38578923750000 
 S -5.22712496875000 0.446809675000001 5.82444523750000 
 S -5.83956796875000 3.93917767500000 6.00467423750000 
 S -2.35238196875000 1.48370067500000 3.15261423750000 
 S -3.03211096875000 5.00427967500000 3.24725423750000 
 S -3.15281296875000 1.87356367500000 7.16245423750000 
 S -3.75842796875000 5.41003767500000 7.24954723750000 
