16

 C -3.15131730312500 1.04933420624999 5.72758745000000 
 C -2.76968030312500 4.67223220625000 5.42512145000000 
 C -4.48243330312500 0.875430206249995 5.25043545000000 
 C -4.07740730312500 4.39566320625000 4.80365745000000 
 N -2.15067030312500 0.985881206249996 4.82242045000000 
 N -1.75196830312500 4.84222220624999 4.56580945000000 
 N -4.45085630312500 0.617232206249994 3.90583345000000 
 N -4.06268530312500 4.39103020625000 3.49978545000000 
 N -4.49898830312500 1.74934820624999 7.79970245000000 
 N -4.68148330312500 4.71449920624999 7.30661745000000 
 S -5.59851330312500 1.42012420624999 6.55070345000000 
 S -5.48338730312500 4.61672520625000 5.82508745000000 
 S -2.85941130312500 0.570182206249996 3.42960045000000 
 S -2.53905930312500 4.71859220625000 3.04682945000000 
 S -2.86871330312500 1.71366520625000 7.32335445000000 
 S -3.00621030312500 4.82470920625000 7.25624245000000 
