16

 C -3.18399664062500 1.68602000937500 5.72649147812500 
 C -3.07347164062500 5.27307300937500 5.87911747812500 
 C -4.24892664062500 0.975036009374998 5.07597247812500 
 C -4.26753264062500 4.64853900937500 5.30405747812500 
 N -2.16428164062500 1.99621300937500 4.86834047812500 
 N -2.13388164062500 5.58704500937500 5.03646747812500 
 N -4.15755664062500 0.781654009374998 3.74805547812500 
 N -4.13944064062500 4.49696300937500 3.97768647812500 
 N -5.05579864062500 1.10222300937500 7.44492947812500 
 N -4.66136264062500 4.90954900937500 7.88308247812500 
 S -5.67817864062500 0.638264009374998 5.95324747812500 
 S -5.63025464062500 4.48497200937500 6.48843947812500 
 S -2.71718364062500 1.46054900937500 3.32812347812500 
 S -2.61031364062500 5.08748500937500 3.54436247812500 
 S -3.55581064062500 1.86989700937500 7.47341147812500 
 S -3.18196464062500 5.58773000937500 7.58470547812500 
