16

 C -3.14651853125000 1.57816464687500 5.48895373750000 
 C -3.62456153125000 4.86909864687500 5.03253773750000 
 C -4.28052853125000 0.787640646875003 5.00113873750000 
 C -4.76712653125000 4.28125764687500 4.41307673750000 
 N -2.16272853125000 1.81167764687500 4.61954473750000 
 N -2.62305353125000 5.21858964687500 4.23414673750000 
 N -4.02141953125000 0.340353646875003 3.75155873750000 
 N -4.51402353125000 3.97715764687500 3.13632073750000 
 N -4.88373953125000 1.37242764687500 7.42665873750000 
 N -5.41830453125000 4.69153264687500 6.87013473750000 
 S -5.53265053125000 0.470391646875003 6.18397473750000 
 S -6.01932153125000 3.82820764687500 5.53809973750000 
 S -2.61428253125000 1.11092364687500 3.15832373750000 
 S -3.04513553125000 4.58981564687500 2.71999673750000 
 S -3.38604753125000 2.01762964687500 7.11486273750000 
 S -3.83892353125000 5.23710764687500 6.72190773750000 
