16

 C -3.12155842500000 1.37426988750000 5.51875625625000 
 C -3.25165442500000 5.08032888750000 5.14072025625000 
 C -4.35432342500000 0.944358887500000 4.95780825625000 
 C -4.38340142500000 4.36602188750000 4.62094725625000 
 N -2.07469142500000 1.49967588750000 4.69551225625000 
 N -2.18134142500000 5.06787088750000 4.38713425625000 
 N -4.30572342500000 0.638636887500000 3.65370425625000 
 N -4.16459142500000 3.93714088750000 3.38656525625000 
 N -4.74977142500000 1.25975288750000 7.52058025625000 
 N -4.91598842500000 5.08179188750000 7.10738325625000 
 S -5.59823242500000 0.868074887500000 6.22749425625000 
 S -5.63669542500000 4.26079588750000 5.79743925625000 
 S -2.68924242500000 0.946700887500000 3.22310025625000 
 S -2.59530542500000 4.32609488750000 2.96009925625000 
 S -3.25676242500000 1.82897288750000 7.22354425625000 
 S -3.29581942500000 5.50172688750000 6.85729025625000 
