16

 C -3.14348211875000 1.38111765000000 5.53124857812500 
 C -3.44869611875000 5.07160265000000 5.54190657812500 
 C -4.34238911875000 0.979903650000002 4.85285457812500 
 C -4.65364411875000 4.57428065000000 4.93072057812500 
 N -2.10186611875000 1.71931065000000 4.75882957812500 
 N -2.49251411875000 5.34766965000000 4.65455557812500 
 N -4.26688611875000 0.927511650000001 3.52637157812500 
 N -4.55879911875000 4.28017665000000 3.63781457812500 
 N -5.04357511875000 1.23169165000000 7.31675557812500 
 N -5.14648711875000 4.92431665000000 7.39826357812500 
 S -5.73069211875000 0.713980650000002 5.88112157812500 
 S -5.91441411875000 4.17732065000000 6.07085957812500 
 S -2.74386111875000 1.42625065000000 3.23473357812500 
 S -3.09061111875000 4.89471665000000 3.15338457812500 
 S -3.42432011875000 1.60565865000000 7.23222857812500 
 S -3.53799311875000 5.28482165000000 7.23036657812500 
