16

 C -3.23913090625000 1.03752760312500 5.64953904062500 
 C -3.30232790625000 5.15318060312500 5.62503804062500 
 C -4.47135290625000 0.773810603125000 4.94407304062500 
 C -4.40409190625000 4.52653260312500 4.95619604062500 
 N -2.15194990625000 1.08779460312500 4.89692904062500 
 N -2.32711790625000 5.60857060312500 4.83794704062500 
 N -4.28418290625000 0.679131603125000 3.62355204062500 
 N -4.21115790625000 4.34091960312500 3.65717104062500 
 N -4.91967190625000 0.720391603125000 7.49040104062500 
 N -4.99469490625000 4.64647060312500 7.47633904062500 
 S -5.80679990625000 0.595378603125000 6.05242004062500 
 S -5.59889490625000 3.96213660312500 6.05862804062500 
 S -2.63644890625000 0.943402603125000 3.32601504062500 
 S -2.75021090625000 5.09994260312500 3.31568704062500 
 S -3.31682590625000 1.11340660312500 7.35622404062500 
 S -3.46829890625000 5.31532460312500 7.40780704062500 
