16

 C -3.30426785625000 1.27167435937500 5.54217899062500 
 C -3.37890285625000 4.68315435937500 5.31576599062500 
 C -4.49133985625000 0.690136359375001 4.87624299062500 
 C -4.65055185625000 4.48662835937500 4.64098999062500 
 N -2.24366185625000 1.55360035937500 4.79331599062500 
 N -2.40755285625000 5.07810835937500 4.48887599062500 
 N -4.29986685625000 0.576843359375001 3.56933699062500 
 N -4.53490785625000 4.48524335937500 3.32587299062500 
 N -5.06654285625000 0.974163359375001 7.37188999062500 
 N -5.13629585625000 4.64689235937500 7.14418899062500 
 S -5.72226785625000 0.220904359375001 5.96633199062500 
 S -5.98987285625000 4.47480235937500 5.74831599062500 
 S -2.78533285625000 1.17614535937500 3.28086799062500 
 S -3.00040285625000 4.97553235937500 2.93845499062500 
 S -3.45658985625000 1.41877535937500 7.19448399062500 
 S -3.52404685625000 4.95356435937500 6.98972599062500 
