16

 C -2.91895385000000 1.65073585312500 5.76088963437500 
 C -3.12731385000000 5.33630585312500 5.70514663437500 
 C -4.17295185000000 1.42827985312500 5.12726263437500 
 C -4.36855785000000 4.87969085312500 5.12383363437500 
 N -1.89872285000000 1.79078085312500 4.89776963437500 
 N -2.12464985000000 5.35921085312500 4.81266663437500 
 N -4.15588485000000 1.56130385312500 3.78655663437500 
 N -4.37401685000000 4.76498785312500 3.80013863437500 
 N -4.67525285000000 1.65678985312500 7.62497663437500 
 N -4.85165885000000 5.26667185312500 7.64317563437500 
 S -5.46772985000000 1.45847985312500 6.17208463437500 
 S -5.62400185000000 4.80920785312500 6.23569663437500 
 S -2.61564185000000 1.83414885312500 3.40748963437500 
 S -2.85366085000000 5.04985985312500 3.30114463437500 
 S -2.99038385000000 1.81046185312500 7.48642463437500 
 S -3.19347185000000 5.56817485312500 7.42678963437500 
