16

 C -2.85371457187499 1.94710154687500 5.37789890312500 
 C -3.03380257187499 5.13045154687500 5.48452490312500 
 C -4.09015657187499 1.46249254687500 4.77516590312500 
 C -4.28163357187499 4.92625554687500 4.76324090312500 
 N -1.84571157187499 2.13897954687500 4.52502790312500 
 N -2.00029257187499 5.16666854687500 4.67525890312500 
 N -3.99866457187499 1.17840554687500 3.47266390312500 
 N -4.12364057187499 4.87502554687500 3.44237190312500 
 N -4.59670957187499 1.78916654687500 7.31346290312500 
 N -4.96147357187499 4.89225054687500 7.21544190312500 
 S -5.43651457187499 1.42957054687500 5.88975690312500 
 S -5.62323557187499 4.55974754687500 5.75572990312500 
 S -2.42025157187499 1.65985454687500 3.08701790312500 
 S -2.48596257187499 4.94205354687500 3.13816490312500 
 S -3.00654457187499 2.29179454687500 7.10322990312500 
 S -3.33647157187499 5.31698254687500 7.20827890312500 
