16

 C -3.33418700625000 1.19853975625000 5.44368186250000 
 C -3.22304800625000 5.21776775625000 5.12767086250000 
 C -4.45690600625000 0.588406756250001 4.78403286250000 
 C -4.20714700625000 4.43378275625000 4.43721786250000 
 N -2.29871600625000 1.47384375625000 4.65929586250000 
 N -2.32363300625000 5.73955675625000 4.30120886250000 
 N -4.22859600625000 0.483182756250001 3.47803986250000 
 N -4.08212900625000 4.32872175625000 3.11388286250000 
 N -5.15050000625000 0.841195756250001 7.20202786250000 
 N -4.84405900625000 4.27031875625000 6.88036886250000 
 S -5.78150300625000 0.205703756250001 5.83687986250000 
 S -5.46717700625000 3.89067875625000 5.43350286250000 
 S -2.75496800625000 1.14658075625000 3.08134286250000 
 S -2.73223600625000 5.16630975625000 2.72257786250000 
 S -3.61170500625000 1.42831375625000 7.12929386250000 
 S -3.47873900625000 5.22552875625000 6.82307286250000 
