16

 C -3.23746917187500 1.20111852187500 5.52533325937500 
 C -2.96822217187500 5.03930252187500 5.43211925937500 
 C -4.51404917187500 0.782890521874999 5.03349425937500 
 C -4.20986417187500 4.92206052187500 4.71858025937500 
 N -2.35416217187500 1.30853952187500 4.56445325937500 
 N -1.89765817187500 5.26187352187500 4.66827825937500 
 N -4.57493517187500 0.609296521875000 3.74225025937500 
 N -4.02505417187500 4.83936852187500 3.38914425937500 
 N -4.83262917187500 0.911089521875000 7.58690625937500 
 N -4.83899117187500 4.72834552187500 7.26493125937500 
 S -5.75863117187500 0.804495521874999 6.20085325937500 
 S -5.53024617187500 4.63549252187500 5.76641825937500 
 S -3.06413117187500 0.981104521874999 3.09484825937500 
 S -2.41264217187500 5.04789852187500 3.10227425937500 
 S -3.25775617187500 1.38861052187500 7.28951625937500 
 S -3.20359717187500 5.12297352187500 7.21333425937500 
