16

 C -3.09834006875000 1.84486342187500 5.77339085937500 
 C -3.07402906875000 5.30650542187500 5.66610685937500 
 C -4.35994106875000 1.57115942187500 5.16714585937500 
 C -4.30785606875000 4.92774842187500 5.05058485937500 
 N -2.08076306875000 1.89510842187500 4.91056385937500 
 N -2.06675506875000 5.48591342187500 4.79529285937500 
 N -4.29978906875000 1.59848342187500 3.85021885937500 
 N -4.27959606875000 5.00082042187500 3.71595285937500 
 N -4.81980006875000 1.43355742187500 7.67276885937500 
 N -4.82962206875000 4.99955942187500 7.56614885937500 
 S -5.68377506875000 1.36502642187500 6.21173985937500 
 S -5.65159506875000 4.73874442187500 6.12220285937500 
 S -2.69547706875000 1.64039242187500 3.39832285937500 
 S -2.75383706875000 5.22067742187500 3.26918685937500 
 S -3.17336706875000 1.85766342187500 7.50415885937500 
 S -3.18524206875000 5.30898942187500 7.42512485937500 
