16

 C -3.32588475625000 1.59451988437499 5.45477137812500 
 C -2.98834075625000 5.36982788437499 5.89153337812500 
 C -4.39606475625000 0.840592884374990 4.80691037812500 
 C -4.16560675625000 4.77956088437499 5.37642937812500 
 N -2.30452475625000 2.07545488437499 4.78959237812500 
 N -2.08037975625000 5.59743688437499 4.93735237812500 
 N -4.06766075625000 0.663508884374991 3.52325537812500 
 N -4.21404575625000 4.55718688437499 4.03414637812500 
 N -4.96306475625000 1.10114888437499 7.33796137812500 
 N -4.72270675625000 5.12432488437499 7.87606737812500 
 S -5.68027375625000 0.460290884374991 6.00085037812500 
 S -5.47500575625000 4.60081088437499 6.37355237812500 
 S -2.60856075625000 1.57499688437499 3.24500737812500 
 S -2.77787075625000 5.14644988437499 3.48080237812500 
 S -3.45238175625000 1.67327088437499 7.17984037812500 
 S -3.07145275625000 5.44180988437499 7.67557737812500 
