16

 C -3.06093600000000 1.24806487500000 5.50949085937500 
 C -2.94532400000000 5.26112287500000 5.49461485937500 
 C -4.23849900000000 0.899852875000004 4.70695285937500 
 C -4.19145600000000 4.94237587500000 4.86643285937500 
 N -1.91383800000000 1.33531887500000 4.87654285937500 
 N -1.88337900000000 5.20983887500000 4.66778485937500 
 N -3.90555900000000 0.851036875000004 3.43911685937500 
 N -4.09375300000000 4.67692387500000 3.55324285937500 
 N -4.91663900000000 1.30748887500000 7.15089985937500 
 N -4.79034400000000 5.21378687500000 7.39120885937500 
 S -5.62007500000000 0.709731875000005 5.83434585937500 
 S -5.56429000000000 4.89567587500000 5.87895585937500 
 S -2.29101800000000 1.03339187500000 3.26435185937500 
 S -2.53151200000000 4.85813387500000 3.11959385937500 
 S -3.28320900000000 1.46535787500000 7.19676885937500 
 S -3.07401900000000 5.48521287500000 7.28128285937500 
