16

 C -2.88361034687500 1.90083650000000 5.43840275312500 
 C -3.11891034687500 5.18878750000000 5.49251575312500 
 C -4.09705034687500 1.50863850000000 4.81052175312500 
 C -4.30600034687500 4.87029150000000 4.73606975312500 
 N -1.88190734687500 1.91518150000000 4.58269275312500 
 N -1.98645834687500 5.21478050000000 4.78083075312500 
 N -4.00012034687500 1.21751550000000 3.53672475312500 
 N -4.11014234687500 4.73764950000000 3.44235675312500 
 N -4.59480134687500 1.74304250000000 7.24226875312500 
 N -4.90622534687500 4.88382150000000 7.26015075312500 
 S -5.40009534687500 1.40461950000000 5.86546875312500 
 S -5.70200134687500 4.59197650000000 5.80208975312500 
 S -2.45583034687500 1.56185350000000 3.04602075312500 
 S -2.48719634687500 4.87195150000000 3.16451175312500 
 S -3.01477334687500 2.23302850000000 7.10104475312500 
 S -3.30199334687500 5.30333150000000 7.22617075312500 
