16

 C -3.17376117812500 1.25841590937500 5.41967182500000 
 C -3.15218317812500 5.32967490937500 5.63308682500000 
 C -4.31914417812500 0.594726909375003 4.82704982500000 
 C -4.27496417812500 4.71416990937500 5.05318582500000 
 N -2.10900317812500 1.19030390937500 4.62938982500000 
 N -2.15596817812500 5.55259790937500 4.75057282500000 
 N -4.05857917812500 1.292790937500410E-002 3.64291582500000 
 N -4.12517017812500 4.42171690937500 3.75686182500000 
 N -5.02998717812500 1.21494590937500 7.18580282500000 
 N -4.93079817812500 5.13730190937500 7.46166682500000 
 S -5.75142517812500 0.605444909375004 5.83994482500000 
 S -5.71627717812500 4.75377190937500 6.00416482500000 
 S -2.55501317812500 0.447019909375004 3.21959482500000 
 S -2.63337017812500 4.91705090937500 3.27445582500000 
 S -3.49653117812500 1.85183390937500 7.00118782500000 
 S -3.32889317812500 5.70160590937500 7.34517082500000 
