16

 C -3.26445314062500 1.12710952187500 5.50878947187500 
 C -2.79929714062500 5.06954052187500 5.46906847187500 
 C -4.56282814062500 0.710584521875000 4.99394647187500 
 C -4.02570114062500 4.93442352187500 4.72570647187500 
 N -2.37555914062500 1.22902652187500 4.56886747187500 
 N -1.71508814062500 5.33437252187500 4.72710647187500 
 N -4.55558714062500 0.487005521875000 3.70193247187500 
 N -3.81294814062500 4.84686552187500 3.40709147187500 
 N -4.76800614062500 1.38681852187500 7.41265347187500 
 N -4.77948714062500 5.09041352187500 7.15390147187500 
 S -5.72233214062500 0.602188521875000 6.23373947187500 
 S -5.43244814062500 4.62838752187500 5.68754347187500 
 S -3.01812914062500 0.873713521875000 3.12418747187500 
 S -2.22735514062500 5.14836852187500 3.16022747187500 
 S -3.11603414062500 1.27817052187500 7.20612847187500 
 S -3.11061014062500 5.09683652187500 7.16845347187500 
