16

 C -3.22647704687500 0.864070999999998 5.47845744375000 
 C -3.35587804687500 5.08272700000000 5.49688544375000 
 C -4.48633104687500 0.602362999999998 4.75547044375000 
 C -4.49761104687500 4.61200400000000 4.81651344375000 
 N -2.22313104687500 1.08778500000000 4.64773544375000 
 N -2.31478404687500 5.38624200000000 4.72173744375000 
 N -4.44816404687500 0.574121999999998 3.42345144375000 
 N -4.35731504687500 4.54338400000000 3.49427944375000 
 N -5.13658904687500 0.706695999999998 7.27149844375000 
 N -4.99207504687500 4.45513800000000 7.37576344375000 
 S -5.87841004687500 0.565077999999998 5.76134544375000 
 S -5.77260304687500 4.20855800000000 5.91958744375000 
 S -2.83482704687500 0.971464999999998 3.12893144375000 
 S -2.72859604687500 5.02046600000000 3.19825044375000 
 S -3.45399104687500 0.846430999999998 7.21105444375000 
 S -3.52048004687500 5.22854400000000 7.20432544375000 
