16

 C -3.22618659687500 1.36915947812500 5.39731896250000 
 C -3.32259259687500 5.06076847812500 5.46500596250000 
 C -4.44213059687500 0.993743478125000 4.78206396250000 
 C -4.48428859687500 4.51890547812500 4.82403696250000 
 N -2.24165859687500 1.65939147812500 4.58676996250000 
 N -2.36622059687500 5.34971847812500 4.62252496250000 
 N -4.36268459687500 0.811127478125001 3.49067796250000 
 N -4.43847659687500 4.39408047812500 3.50108996250000 
 N -4.92402359687500 1.22253647812500 7.30088096250000 
 N -5.01910359687500 4.62665947812500 7.32637996250000 
 S -5.72475559687500 0.735715478125001 5.92258596250000 
 S -5.74105259687500 4.05722647812500 5.93748496250000 
 S -2.78900659687500 1.26069047812500 3.07381896250000 
 S -2.92703659687500 4.93863447812500 3.09213496250000 
 S -3.29707659687500 1.56163547812500 7.11160296250000 
 S -3.40740459687500 5.07445447812500 7.17054196250000 
