16

 C -2.89928894062500 1.34640565625000 5.75649574062500 
 C -3.11147394062500 4.95506765625000 5.46198174062500 
 C -4.09705994062500 0.762275656249999 5.19995274062500 
 C -4.41614794062500 4.61961965625000 4.88297074062500 
 N -1.84888394062500 1.36502165625000 4.97552674062500 
 N -2.13254294062500 5.01253765625000 4.60746274062500 
 N -3.96751894062500 0.411646656249999 3.91811874062500 
 N -4.33516794062500 4.28448465625000 3.60705374062500 
 N -4.63164194062500 1.53875365625000 7.59051974062500 
 N -4.76008394062500 4.99270965625000 7.36903574062500 
 S -5.39499694062500 0.864607656250000 6.25754374062500 
 S -5.70617594062500 4.61258765625000 6.02033574062500 
 S -2.37653894062500 0.707010656250000 3.57502974062500 
 S -2.73064194062500 4.45824165625000 3.19244074062500 
 S -2.96121094062500 1.92138365625000 7.34077374062500 
 S -3.14321794062500 5.26845365625000 7.20277874062500 
