16

 C -2.88243651875000 1.38729240625000 5.66073875937500 
 C -3.05153951875000 4.87066940625000 5.37627375937500 
 C -4.09133951875000 0.829856406249997 5.12288375937500 
 C -4.28943251875000 4.45036240625000 4.79601375937500 
 N -1.94646451875000 1.56398340625000 4.76263775937500 
 N -2.04082351875000 4.86758340625000 4.53232675937500 
 N -4.02277851875000 0.382842406249997 3.87783575937500 
 N -4.23929351875000 4.11387440625000 3.52112475937500 
 N -4.66136451875000 1.44320040625000 7.44952075937500 
 N -4.90928851875000 5.12796440625000 7.16657475937500 
 S -5.42038651875000 0.762531406249997 6.12943175937500 
 S -5.65413951875000 4.48007040625000 5.78450775937500 
 S -2.50432051875000 0.800784406249997 3.38845575937500 
 S -2.68731851875000 4.32815140625000 3.06797175937500 
 S -3.05301151875000 1.85751740625000 7.34196075937500 
 S -3.19490751875000 5.39380940625000 7.03863075937500 
