16

 C -2.91226094687500 1.37419823750000 5.56164257187500 
 C -3.10454694687500 5.17031923750000 5.14130057187500 
 C -4.11475394687500 0.996015237499999 4.85775957187500 
 C -4.37157394687500 4.80080923750000 4.61059357187500 
 N -1.77643394687500 1.41666423750000 4.84142257187500 
 N -2.08254694687500 5.25190223750000 4.29527657187500 
 N -3.90927194687500 0.711224237500000 3.56344257187500 
 N -4.31302494687500 4.50585023750000 3.29473057187500 
 N -4.92593994687500 1.54061023750000 7.23665557187500 
 N -4.70955094687500 4.90882523750000 7.08019057187500 
 S -5.59503794687500 0.855600237499999 5.84342757187500 
 S -5.63283894687500 4.81471523750000 5.74086157187500 
 S -2.30205994687500 0.940777237499999 3.25621757187500 
 S -2.71718994687500 4.87116523750000 2.84187857187500 
 S -3.26713194687500 1.60794823750000 7.25155257187500 
 S -3.13917694687500 5.35776623750000 6.87578957187500 
