16

 C -3.10830601875000 1.17459375312500 5.52406768750000 
 C -3.07286801875000 4.68395475312500 5.55216268750000 
 C -4.21303501875000 0.469191753125002 4.89198168750000 
 C -4.27773501875000 4.28353475312500 4.89537468750000 
 N -2.06814401875000 1.44608275312500 4.74226568750000 
 N -2.04820301875000 4.80796575312500 4.71042468750000 
 N -3.97088401875000 0.334737753125002 3.59760568750000 
 N -4.16068401875000 4.13170575312500 3.58150468750000 
 N -4.98342401875000 1.05438475312500 7.26588868750000 
 N -4.96865701875000 5.19115175312500 7.26355168750000 
 S -5.63927601875000 0.337449753125002 5.92730368750000 
 S -5.68393801875000 4.42002975312500 5.95084268750000 
 S -2.51556001875000 1.06146375312500 3.19590068750000 
 S -2.59555801875000 4.50446375312500 3.16525468750000 
 S -3.44727601875000 1.64161875312500 7.13173268750000 
 S -3.29342001875000 5.36607375312500 7.17380168750000 
