16

 C -2.85737159687500 1.92867354687500 5.38602959062500 
 C -3.05626559687500 5.13702254687500 5.48713459062500 
 C -4.09802659687500 1.48119254687500 4.79123259062500 
 C -4.29526659687500 4.91748654687500 4.77096159062500 
 N -1.86113359687500 2.09078854687500 4.52997459062500 
 N -2.00503659687500 5.17611354687500 4.69665959062500 
 N -4.00237059687500 1.17830454687500 3.49507659062500 
 N -4.11305159687500 4.85583454687500 3.44138559062500 
 N -4.59257059687500 1.77827654687500 7.29497059062500 
 N -4.95278259687500 4.88403254687500 7.21486259062500 
 S -5.42598259687500 1.42332654687500 5.87823659062500 
 S -5.63855059687500 4.56551054687500 5.76514659062500 
 S -2.42285059687500 1.64376254687500 3.08056459062500 
 S -2.48216259687500 4.92220154687500 3.14042059062500 
 S -3.00616559687500 2.28485654687500 7.10283359062500 
 S -3.32339159687500 5.31635554687500 7.21771659062500 
