16

 C -3.04897178125000 0.952182431249998 5.76385964375000 
 C -3.25604278125000 5.17151443125000 5.56296464375000 
 C -4.27166378125000 0.595534431249998 5.09388364375000 
 C -4.33116678125000 4.42345943125000 4.98450364375000 
 N -1.99586878125000 1.14461243125000 4.97096664375000 
 N -2.22669678125000 5.52257743125000 4.77207064375000 
 N -4.21352178125000 0.610500431249998 3.76151764375000 
 N -4.24957578125000 4.42142443125000 3.64545164375000 
 N -4.94413978125000 0.999401431249998 7.56330964375000 
 N -5.08920178125000 4.78921743125000 7.39802964375000 
 S -5.66502378125000 0.576934431249999 6.13628064375000 
 S -5.57582978125000 3.89118743125000 6.04475964375000 
 S -2.64201778125000 0.924910431249998 3.43244564375000 
 S -2.78904378125000 5.08689743125000 3.25038564375000 
 S -3.30147478125000 1.19857643125000 7.48245864375000 
 S -3.49747478125000 5.25402743125000 7.28884564375000 
