16

 C -3.31257918437500 1.53907781562499 5.55487368750000 
 C -3.38882218437500 5.37355581562499 5.70440568750000 
 C -4.57378018437500 1.12633381562499 4.98637168750000 
 C -4.48423418437500 4.69463181562499 5.02651768750000 
 N -2.37363218437500 1.74676581562499 4.68367468750000 
 N -2.36553518437500 5.59096381562499 4.87730668750000 
 N -4.56616718437500 1.12124081562499 3.67650468750000 
 N -4.37054218437500 4.57310481562499 3.70164468750000 
 N -4.81666518437500 1.09258181562499 7.51205368750000 
 N -5.06584918437500 4.81233581562499 7.57284268750000 
 S -5.77502818437500 0.917159815624994 6.13389968750000 
 S -5.76154418437500 4.29704181562499 6.11791968750000 
 S -3.03732518437500 1.48153181562499 3.19179468750000 
 S -2.90684318437500 5.19111681562499 3.34180368750000 
 S -3.27365818437500 1.59273881562499 7.31476068750000 
 S -3.44788118437500 5.40387281562499 7.44198568750000 
