16

 C -2.80479669687500 1.40241460937500 5.70816553750000 
 C -3.02259969687500 4.75752360937500 5.43939453750000 
 C -3.98455369687500 0.686676609375002 5.18764453750000 
 C -4.29585069687500 4.38522660937500 4.81315353750000 
 N -1.83994469687500 1.48600660937500 4.80102053750000 
 N -2.05267769687500 4.76019460937500 4.56664853750000 
 N -3.86151369687500 0.310167609375001 3.89742653750000 
 N -4.24406469687500 4.07681660937500 3.51661053750000 
 N -4.72222769687500 1.52805060937500 7.58337553750000 
 N -4.82004369687500 5.08254360937500 7.25538953750000 
 S -5.35991869687500 0.843242609375002 6.22396453750000 
 S -5.67064069687500 4.60831260937500 5.89837953750000 
 S -2.38912469687500 0.806125609375001 3.37258753750000 
 S -2.67340769687500 4.44706560937500 3.06842553750000 
 S -3.08505469687500 1.86255860937500 7.36140953750000 
 S -3.23250669687500 5.38386560937500 7.10508753750000 
