16

 C -3.11127707187500 1.62001131875000 5.68052280937500 
 C -3.10716707187500 5.16420531875000 5.62727380937500 
 C -4.41171007187500 1.52521631875000 5.04876980937500 
 C -4.37363607187500 4.97495431875000 4.99264580937500 
 N -2.03529907187500 1.70449831875000 4.86866080937500 
 N -2.04448207187500 5.38218131875000 4.86216580937500 
 N -4.32112007187500 1.43163331875000 3.69542680937500 
 N -4.24770007187500 4.90854431875000 3.66221380937500 
 N -4.84203007187500 1.57648331875000 7.63493680937500 
 N -4.82309207187500 4.99199831875000 7.54224380937500 
 S -5.67482207187500 1.30445531875000 6.28420280937500 
 S -5.65101807187500 4.64823631875000 6.15058180937500 
 S -2.74053307187500 1.75577931875000 3.34222480937500 
 S -2.63658407187500 5.32576131875000 3.30395280937500 
 S -3.22605507187500 1.88965731875000 7.46728780937500 
 S -3.23004007187500 5.30640931875000 7.33985880937500 
