16

 C -3.28297197812500 1.58110919375000 5.49063447500000 
 C -3.09713297812500 5.19720219375000 5.70033847500000 
 C -4.54142997812500 1.16173719375000 4.94305047500000 
 C -4.29737597812500 4.68713419375000 5.06259247500000 
 N -2.38185097812500 1.78227619375000 4.57410247500000 
 N -2.08928197812500 5.38699119375000 4.88311847500000 
 N -4.57023097812500 1.11060619375000 3.60792547500000 
 N -4.24914597812500 4.73232519375000 3.76545447500000 
 N -4.80438697812500 1.10203519375000 7.53117247500000 
 N -4.94462997812500 5.06809319375000 7.55105647500000 
 S -5.78103997812500 0.987565193750001 6.20771947500000 
 S -5.61426297812500 4.35672219375000 6.19572747500000 
 S -3.03576297812500 1.40618819375000 3.04590647500000 
 S -2.72236897812500 5.07123019375000 3.35448247500000 
 S -3.26362697812500 1.67954619375000 7.27852447500000 
 S -3.30550697812500 5.42676519375000 7.39026947500000 
