16

 C -3.00520636250000 1.41063213750000 5.54915758750000 
 C -3.31746036250000 5.13556313750000 5.18321658750000 
 C -4.20046936250000 1.05526313750000 4.77773858750000 
 C -4.42521436250000 4.40717213750000 4.58771958750000 
 N -1.86421736250000 1.58233213750000 4.81365258750000 
 N -2.20869836250000 5.24521013750000 4.44679658750000 
 N -3.97220636250000 0.855895137500000 3.46623858750000 
 N -4.14744036250000 4.00802313750000 3.35090958750000 
 N -5.02769936250000 1.09588713750000 7.27589158750000 
 N -5.25200736250000 5.09788413750000 6.86029558750000 
 S -5.61483236250000 0.801028137500000 5.77427658750000 
 S -5.75603036250000 4.10043313750000 5.67154858750000 
 S -2.40156436250000 1.13243013750000 3.25957558750000 
 S -2.56586136250000 4.42678913750000 3.04979358750000 
 S -3.46033336250000 1.68818813750000 7.27148858750000 
 S -3.77667736250000 5.86239213750000 6.69588258750000 
