16

 C -2.90329419062500 1.64546263437500 5.38156057812500 
 C -3.22932519062500 5.10305063437500 5.61681557812500 
 C -4.18206419062500 1.23964863437500 4.83235157812500 
 C -4.45141619062500 4.75331763437500 4.94415757812500 
 N -1.92591019062500 1.69809163437500 4.50569057812500 
 N -2.20376319062500 5.24584563437500 4.79927157812500 
 N -4.24764019062500 1.12061763437500 3.49799057812500 
 N -4.38667719062500 4.71716463437500 3.60946757812500 
 N -4.62736519062500 1.66298763437500 7.41114257812500 
 N -4.94051619062500 4.63195263437500 7.48675157812500 
 S -5.43644719062500 1.17372563437500 6.09107157812500 
 S -5.73651219062500 4.43903563437500 6.01269457812500 
 S -2.65128419062500 1.27680263437500 3.00178657812500 
 S -2.76966219062500 4.98620063437500 3.22978657812500 
 S -3.03714319062500 1.98429263437500 7.12789357812500 
 S -3.38898119062500 5.21413663437500 7.38491657812500 
