16

 C -3.06097884687500 1.25697015312500 5.62438370937500 
 C -3.12422784687500 5.03960215312500 5.50172270937500 
 C -4.26006284687500 0.796557153125002 5.04127470937500 
 C -4.26861784687500 4.43129415312500 4.91081570937500 
 N -2.02955384687500 1.29715815312500 4.80704470937500 
 N -2.04640284687500 5.12863615312500 4.73051370937500 
 N -4.14561884687500 0.404956153125003 3.79497970937500 
 N -4.00738084687500 4.03281215312500 3.65955670937500 
 N -4.80542984687500 1.13277915312500 7.47420070937500 
 N -4.86045284687500 4.89332515312500 7.39764470937500 
 S -5.57966984687500 0.693806153125003 6.09637570937500 
 S -5.59631984687500 4.30512215312500 6.04253170937500 
 S -2.56068284687500 0.723436153125003 3.38650570937500 
 S -2.45387684687500 4.47815115312500 3.27828370937500 
 S -3.22061684687500 1.63959815312500 7.35536770937500 
 S -3.31236284687500 5.35173715312500 7.17352370937500 
