16

 C -3.21403730937500 1.65973408437500 5.37426088437500 
 C -3.04083630937500 4.97471508437500 5.49325888437500 
 C -4.40165830937500 1.23438208437500 4.68046988437500 
 C -4.29646930937500 4.59771608437500 4.86845288437500 
 N -2.19037430937500 1.91667408437500 4.59254288437500 
 N -1.93736830937500 5.08837508437500 4.70759888437500 
 N -4.25358130937500 1.22190108437500 3.35086588437500 
 N -4.15343230937500 4.59498608437500 3.52725488437500 
 N -4.97488530937500 1.05399108437500 7.23365888437500 
 N -4.81871730937500 4.90517208437500 7.30014188437500 
 S -5.69264130937500 0.935354084375001 5.73833188437500 
 S -5.74807330937500 4.64432408437500 5.90414488437500 
 S -2.63743830937500 1.63941908437500 3.05755888437500 
 S -2.57403530937500 4.95171808437500 3.17428388437500 
 S -3.40185730937500 1.66733308437500 7.12273488437500 
 S -3.18576730937500 5.04916808437500 7.21369488437500 
