16

 C -3.37496058437500 1.29063292812500 5.43166838750000 
 C -3.29354258437500 5.15455792812500 5.79691038750000 
 C -4.57714458437500 0.829064928124999 4.73106038750000 
 C -4.53195758437500 4.71320992812500 5.17997138750000 
 N -2.34122458437500 1.63024092812500 4.66907238750000 
 N -2.26258958437500 5.23062492812500 4.98333138750000 
 N -4.48898458437500 0.989037928124999 3.38569338750000 
 N -4.49768558437500 4.73576992812500 3.85748538750000 
 N -5.26257058437500 0.942905928124999 7.14224438750000 
 N -5.04849958437500 4.85221092812500 7.73585638750000 
 S -5.95819858437500 0.422595928124999 5.72323238750000 
 S -5.76723758437500 4.37810292812500 6.29798738750000 
 S -2.93889458437500 1.34050792812500 3.08250738750000 
 S -2.85248658437500 5.07449292812500 3.46314638750000 
 S -3.64314158437500 1.40429392812500 7.14356138750000 
 S -3.42544658437500 5.21746392812500 7.57228738750000 
