16

 C -3.07319721562500 1.27530248125000 5.43913825625000 
 C -3.09282221562500 5.05966948125000 5.64133125625000 
 C -4.20419021562500 0.693944481250004 4.72246425625000 
 C -4.14939321562500 4.50411548125000 4.91605425625000 
 N -2.13901921562500 1.73244648125000 4.63142025625000 
 N -1.99455021562500 5.26783748125000 4.89118225625000 
 N -3.98830221562500 0.696045481250003 3.38983225625000 
 N -3.88434921562500 4.27141448125000 3.67008125625000 
 N -4.76506621562500 0.965604481250004 7.34434025625000 
 N -5.08470221562500 5.07753148125000 7.20184725625000 
 S -5.50265621562500 0.367574481250003 5.98921325625000 
 S -5.63195721562500 4.34252848125000 5.76194325625000 
 S -2.52722021562500 1.36463748125000 3.09960625625000 
 S -2.40727421562500 4.82666148125000 3.35165125625000 
 S -3.28279521562500 1.64101948125000 7.15422225625000 
 S -3.55310821562500 5.57301648125000 7.29611425625000 
