16

 C -3.20687498437500 1.40471533750000 5.37431938750000 
 C -3.25066498437500 5.10779433750000 5.39335338750000 
 C -4.35108998437500 0.602304337500003 4.90678138750000 
 C -4.50456998437500 4.64447133750000 4.89875438750000 
 N -2.21366098437500 1.50586633750000 4.47451538750000 
 N -2.23847098437500 5.08618933750000 4.53359338750000 
 N -4.16955698437500 0.303783337500003 3.61038638750000 
 N -4.43732798437500 4.32146833750000 3.60228738750000 
 N -4.87091098437500 1.27054933750000 7.36353338750000 
 N -4.81056298437500 4.89921233750000 7.42793038750000 
 S -5.55923598437500 0.383861337500004 6.12748138750000 
 S -5.78247898437500 4.73189433750000 6.12885438750000 
 S -2.71712698437500 0.870880337500004 3.08236038750000 
 S -2.91411598437500 4.70012033750000 3.10376838750000 
 S -3.38417998437500 1.90632433750000 7.01260338750000 
 S -3.28513898437500 5.37671033750000 7.09111238750000 
