16

 C -2.88190985312500 1.29874085625000 5.76885101875000 
 C -3.10033985312500 4.81529085625000 5.48901201875000 
 C -4.04737485312500 0.768528856249999 5.18341201875000 
 C -4.36078485312500 4.54249285625000 4.87649301875000 
 N -1.86529885312500 1.37836285625000 4.92207901875000 
 N -2.07651685312500 4.96815585625000 4.61237101875000 
 N -3.86546685312500 0.323145856250000 3.94485501875000 
 N -4.30123785312500 4.21914285625000 3.56739401875000 
 N -4.60820585312500 1.55026885625000 7.57736201875000 
 N -4.78984785312500 5.01380885625000 7.41440301875000 
 S -5.43221985312500 0.860496856250000 6.26835001875000 
 S -5.71503085312500 4.64537585625000 6.01674601875000 
 S -2.32145985312500 0.769829856250000 3.51226301875000 
 S -2.70410885312500 4.46923985625000 3.17668701875000 
 S -2.96261585312500 1.93371885625000 7.36421701875000 
 S -3.17032585312500 5.28684585625000 7.10843301875000 
