16

 C -2.99159733750000 1.41626766250000 5.51973002187500 
 C -3.01039633750000 4.87565166250000 5.22755502187500 
 C -4.23350533750000 1.01839966250000 4.86216302187500 
 C -4.33161133750000 4.89723966250000 4.60902802187500 
 N -1.88742233750000 1.45567066250000 4.80766202187500 
 N -1.97595633750000 4.80720366250000 4.41150702187500 
 N -3.96144333750000 0.665033662500001 3.65427502187500 
 N -4.23700933750000 4.63568366250000 3.33299602187500 
 N -4.86771833750000 1.32908966250000 7.33558702187500 
 N -4.68497633750000 5.22932966250000 7.10241802187500 
 S -5.63185033750000 0.910873662500000 5.89961502187500 
 S -5.58268633750000 4.83150366250000 5.79065602187500 
 S -2.41248033750000 1.03222866250000 3.25315802187500 
 S -2.67797333750000 4.60386966250000 2.90967202187500 
 S -3.22873733750000 1.81770566250000 7.15160002187500 
 S -3.05342933750000 5.31970366250000 6.88762202187500 
