16

 C -2.96548072500000 1.24674907812500 5.57551489687500 
 C -2.97519172500000 5.21259007812500 5.53175189687500 
 C -4.15079572500000 0.969250078125002 4.83821289687500 
 C -4.24184072500000 4.94265107812500 4.85399889687500 
 N -1.84226472500000 1.19229807812500 4.85243989687500 
 N -1.93640172500000 5.20847907812500 4.73921189687500 
 N -3.96523572500000 0.835753078125002 3.50465789687500 
 N -4.05920472500000 4.68610107812500 3.57673689687500 
 N -4.93628272500000 1.33002607812500 7.20177689687500 
 N -4.74581572500000 5.26034307812500 7.33904989687500 
 S -5.62915072500000 0.742251078125003 5.78072889687500 
 S -5.62569972500000 4.86247507812500 5.95315689687500 
 S -2.31380872500000 1.03127107812500 3.23228589687500 
 S -2.43138672500000 4.86980607812500 3.15999989687500 
 S -3.28388172500000 1.52737107812500 7.23262389687500 
 S -3.10385472500000 5.48040607812500 7.22033989687500 
