16

 C -3.01427047187500 1.40492918125001 5.45830081875000 
 C -3.15079147187500 5.03051918125001 5.39859181875000 
 C -4.15084547187500 0.994729181250007 4.77701481875000 
 C -4.41862447187500 4.54914918125001 4.92027581875000 
 N -1.93385647187500 1.63093918125001 4.68645881875000 
 N -2.17817147187500 5.17524818125001 4.48958281875000 
 N -3.94666647187500 0.744603181250007 3.48871181875000 
 N -4.34306547187500 4.22075718125001 3.64351681875000 
 N -5.01856147187500 1.33885218125001 7.18094281875000 
 N -4.90722547187500 5.14682218125001 7.36455081875000 
 S -5.62605447187500 0.929039181250007 5.69762781875000 
 S -5.68919447187500 4.43325118125001 6.06398481875000 
 S -2.38326547187500 1.07009118125001 3.17509181875000 
 S -2.85569147187500 4.64404418125001 3.08376081875000 
 S -3.43601947187500 1.84093418125001 7.18734681875000 
 S -3.31126047187500 5.50288518125001 7.02971881875000 
