16

 C -3.14071612812500 1.35425825000000 5.28851216250000 
 C -2.97329112812500 5.17585925000000 5.55728416250000 
 C -4.35749712812500 0.884348249999999 4.62591216250000 
 C -4.27508712812500 4.75987425000000 5.06230816250000 
 N -2.20907612812500 1.79203625000000 4.44196216250000 
 N -2.01503412812500 5.22853925000000 4.65074016250000 
 N -4.23031812812500 0.999336249999998 3.30942516250000 
 N -4.24564012812500 4.53150425000000 3.76330116250000 
 N -4.67533012812500 0.560800249999998 7.15280616250000 
 N -4.61626912812500 5.06427425000000 7.60470616250000 
 S -5.47307812812500 0.237790249999998 5.75298816250000 
 S -5.43124412812500 4.46136125000000 6.28388416250000 
 S -2.72016612812500 1.58765925000000 2.90615316250000 
 S -2.75581112812500 4.83949525000000 3.21568516250000 
 S -3.21145412812500 1.25077125000000 6.97942016250000 
 S -3.04584512812500 5.53729825000000 7.25794616250000 
