16

 C -2.92828737812500 1.30512258125000 5.36244834687500 
 C -3.29798537812500 5.32715258125000 5.30149834687500 
 C -4.18603637812500 0.977122581250002 4.75810034687500 
 C -4.39660837812500 4.58922058125000 4.75653934687500 
 N -1.92211737812500 1.58077158125000 4.56413934687500 
 N -2.31327737812500 5.57795258125000 4.45825934687500 
 N -4.07484237812500 0.764602581250001 3.45805434687500 
 N -4.10029737812500 4.00731258125000 3.59820534687500 
 N -4.66367237812500 1.06023558125000 7.30539334687500 
 N -5.21586137812500 5.30287158125000 7.13677234687500 
 S -5.57644737812500 0.989276581250001 5.88826734687500 
 S -5.78905437812500 4.37071458125000 5.83761434687500 
 S -2.46088337812500 1.08250458125000 3.10878634687500 
 S -2.61041237812500 4.64809758125000 3.13086234687500 
 S -3.06141737812500 1.48319658125000 7.11016134687500 
 S -3.62457237812500 5.93108758125000 6.88242234687500 
