16

 C -3.22485215937500 1.49808124375000 5.41386704375000 
 C -3.08815615937500 5.04986624375000 5.60790404375000 
 C -4.46396415937500 1.21727724375000 4.77674404375000 
 C -4.34084915937500 4.61765724375000 4.99129904375000 
 N -2.18831815937500 1.77396524375000 4.63590304375000 
 N -2.08553215937500 5.22197524375000 4.79939804375000 
 N -4.37438015937500 1.15717724375000 3.44305504375000 
 N -4.13027015937500 4.28644624375000 3.73530904375000 
 N -4.96262415937500 1.33782824375000 7.33179604375000 
 N -4.85601815937500 4.68220424375000 7.48523504375000 
 S -5.71610515937500 0.942711243750002 5.95740904375000 
 S -5.70843315937500 4.30335724375000 6.09183104375000 
 S -2.81457215937500 1.47190224375000 3.04949904375000 
 S -2.60005915937500 4.70032624375000 3.28904904375000 
 S -3.35071715937500 1.71011924375000 7.17954504375000 
 S -3.34375015937500 5.36023524375000 7.30564904375000 
