16

 C -2.98493916250000 1.58042535937499 5.41152146562500 
 C -3.20391516250000 5.16506435937499 5.58299246562500 
 C -4.28720316250000 1.22763835937499 4.86033146562500 
 C -4.44056516250000 4.84463135937499 4.95280146562500 
 N -2.05772516250000 1.64326535937499 4.48821346562500 
 N -2.16307316250000 5.28257435937499 4.75031446562500 
 N -4.20453916250000 0.965003359374993 3.55708246562500 
 N -4.35569816250000 4.73990335937499 3.61957946562500 
 N -4.60270816250000 1.40337035937499 7.40576246562500 
 N -4.99935416250000 4.65336935937499 7.42854746562500 
 S -5.52946316250000 1.09818935937499 6.00946646562500 
 S -5.73071816250000 4.36762235937499 5.99773346562500 
 S -2.65275916250000 1.18898935937499 3.02771946562500 
 S -2.79107216250000 4.99084835937499 3.22467046562500 
 S -3.02642116250000 1.93104235937499 7.15872246562500 
 S -3.41004316250000 5.13202035937499 7.34730846562500 
