16

 C -2.88786433437500 1.37051615000000 5.74297590937501 
 C -3.10719133437500 5.18797315000000 5.47348090937500 
 C -4.19861533437500 1.01262715000000 5.17900190937501 
 C -4.40666333437500 4.82355515000000 4.91762890937500 
 N -1.88480833437500 1.18902615000000 4.86797390937500 
 N -2.10821833437500 5.08909815000000 4.59890590937500 
 N -4.06943733437500 0.514341149999998 3.93737290937500 
 N -4.37605933437500 4.40325415000000 3.66543890937500 
 N -4.68915733437500 1.51152015000000 7.65339890937500 
 N -4.84449233437500 4.98040015000000 7.52754390937501 
 S -5.48853533437500 0.906499149999998 6.35759590937500 
 S -5.65600733437500 4.53280615000000 6.08930290937500 
 S -2.47848833437500 0.577559149999998 3.47253890937500 
 S -2.81392333437500 4.51638715000000 3.17158390937500 
 S -3.10445933437500 1.88383315000000 7.43278090937500 
 S -3.22278333437500 5.24533115000000 7.24206190937501 
