16

 C -3.26053279375000 0.875694600000004 5.45791075937500 
 C -3.35024679375000 5.04943760000000 5.52060275937500 
 C -4.52329179375000 0.673629600000003 4.80816775937500 
 C -4.53076879375000 4.56434560000000 4.82289075937500 
 N -2.23064879375000 1.06745860000000 4.63401475937500 
 N -2.31026279375000 5.35813360000000 4.80974275937500 
 N -4.37466179375000 0.633007600000004 3.50267175937500 
 N -4.31423479375000 4.47320160000000 3.49565175937500 
 N -5.06708279375000 0.667947600000003 7.25897475937500 
 N -4.99534379375000 4.47282960000000 7.41063175937500 
 S -5.88515979375000 0.508054600000004 5.82278775937500 
 S -5.83054579375000 4.32803760000000 6.00168875937500 
 S -2.85920779375000 0.985720600000003 3.07182775937500 
 S -2.76946179375000 4.95434460000000 3.23388075937500 
 S -3.43836679375000 0.813419600000003 7.17782275937500 
 S -3.43253779375000 5.05677760000000 7.23346375937500 
