16

 C -3.19666987812500 1.11193510937500 5.56262070625000 
 C -3.29640587812500 5.20437410937500 5.69495670625000 
 C -4.43398587812500 0.855766109374999 4.89245670625000 
 C -4.31522387812500 4.43891410937500 5.03915170625000 
 N -2.10054187812500 1.12761810937500 4.79510270625000 
 N -2.31411187812500 5.54944110937500 4.85565470625000 
 N -4.32486587812500 0.721430109374999 3.56213470625000 
 N -4.20567587812500 4.37225710937500 3.69061970625000 
 N -5.00574087812500 0.558057109374999 7.44503570625000 
 N -4.93675687812500 4.47880310937500 7.59078470625000 
 S -5.81435487812500 0.578663109374999 6.04065470625000 
 S -5.63402287812500 4.08788410937500 6.10487970625000 
 S -2.71655087812500 0.928329109374999 3.25667870625000 
 S -2.74063887812500 5.05732910937500 3.33605870625000 
 S -3.42056987812500 1.04221110937500 7.29139870625000 
 S -3.50291687812500 5.31997410937500 7.38059470625000 
