16

 C -3.54988437500000 1.89723653750000 5.33971658437500 
 C -3.19564537500000 5.01409653750000 5.72819858437500 
 C -4.61319937500000 1.21508853750000 4.59727558437500 
 C -4.46198337500000 4.64120553750000 5.12184158437500 
 N -2.47936537500000 2.18408753750000 4.60211558437500 
 N -2.17508537500000 5.01930153750000 4.86452758437500 
 N -4.33448537500000 0.964533537500002 3.36891558437500 
 N -4.41504937500000 4.48241753750000 3.82085558437500 
 N -5.35726137500000 1.10400953750000 7.09477558437500 
 N -5.03880037500000 4.98251453750000 7.56114658437500 
 S -6.01297237500000 0.737099537500002 5.58058858437500 
 S -5.89211637500000 4.74537953750000 6.20377058437500 
 S -2.86602837500000 1.53861853750000 3.04316458437500 
 S -2.81006937500000 4.79488553750000 3.34346258437500 
 S -3.80103637500000 1.77873053750000 7.06000658437500 
 S -3.41833437500000 5.16919453750000 7.44284758437500 
