16

 C -3.09887688125000 1.43249999062501 5.51606458437500 
 C -3.35854188125000 5.27113799062501 5.42211458437500 
 C -4.35771688125000 0.938845990625006 4.90590658437500 
 C -4.54062888125000 4.81533099062501 4.72246258437500 
 N -2.09186588125000 1.61839999062501 4.64904958437500 
 N -2.32036988125000 5.47623899062501 4.64469858437500 
 N -4.17137288125000 0.706931990625006 3.60216458437500 
 N -4.38824988125000 4.68234999062501 3.41310158437500 
 N -4.84665488125000 1.24664699062501 7.45850958437500 
 N -5.08172388125000 4.73792999062501 7.22423058437500 
 S -5.61945688125000 0.646438990625006 6.07831658437500 
 S -5.85097488125000 4.45437199062501 5.76344458437500 
 S -2.62115088125000 1.28113299062501 3.12677458437500 
 S -2.79847088125000 5.20967999062501 3.10507658437500 
 S -3.26304388125000 1.60916499062501 7.23268458437500 
 S -3.52926888125000 5.25434399062501 7.22068858437500 
