16

 C -3.41352468750000 1.28870696875000 5.46112149375000 
 C -3.32275568750000 5.16873096875000 5.83804649375000 
 C -4.55073168750000 0.831347968750001 4.74174149375000 
 C -4.49409468750000 4.69867196875000 5.17899349375000 
 N -2.37049868750000 1.61857796875000 4.69044149375000 
 N -2.26594468750000 5.25642096875000 4.99010349375000 
 N -4.49052768750000 0.971029968750001 3.38393049375000 
 N -4.48032668750000 4.76250996875000 3.83677149375000 
 N -5.26854168750000 0.959850968750001 7.14631849375000 
 N -5.00758668750000 4.82515896875000 7.71541149375000 
 S -5.92791268750000 0.407723968750001 5.73153549375000 
 S -5.74543468750000 4.37043496875000 6.28558449375000 
 S -2.94221668750000 1.30114696875000 3.08984149375000 
 S -2.86958568750000 5.10408196875000 3.46581949375000 
 S -3.61381968750000 1.36895496875000 7.15634349375000 
 S -3.41667868750000 5.23126296875000 7.59806349375000 
