16

 C -3.01521680312500 1.52235400312500 5.61960626875000 
 C -3.02128980312500 5.19524500312500 5.68749026875000 
 C -4.34517880312500 1.25867900312500 5.02042626875000 
 C -4.27485480312500 4.90441200312500 5.00075726875000 
 N -2.06136080312500 1.84608500312500 4.74709726875000 
 N -2.02589980312500 5.50518300312500 4.85097926875000 
 N -4.35702580312500 1.33519300312500 3.71426126875000 
 N -4.21273780312500 4.86418700312500 3.68726926875000 
 N -4.75239380312500 1.56601100312500 7.48704326875000 
 N -4.88030880312500 4.91718300312500 7.46300426875000 
 S -5.67062180312500 1.29038300312500 6.16222326875000 
 S -5.62081380312500 4.57368600312500 5.99518426875000 
 S -2.83576780312500 1.66249100312500 3.26895326875000 
 S -2.60854280312500 5.19784800312500 3.30128426875000 
 S -3.08940080312500 1.80364300312500 7.34883026875000 
 S -3.26269180312500 5.27418600312500 7.39471726875000 
