16

 C -3.19289833437500 1.57516909062500 5.59263649687500 
 C -3.04508433437500 5.31022509062500 5.51404349687500 
 C -4.37128033437500 1.21860209062500 4.88851549687500 
 C -4.26642233437500 4.98050809062500 4.89021749687500 
 N -2.13911133437500 1.93881809062500 4.86110249687500 
 N -2.01096433437500 5.38695109062500 4.65490649687500 
 N -4.18745933437500 1.36141109062500 3.57826949687500 
 N -4.24278933437500 4.70644409062500 3.57756149687500 
 N -5.05167333437500 0.887450090625003 7.30361249687500 
 N -4.80920033437500 5.26184809062500 7.42756549687500 
 S -5.82423533437500 0.777860090625003 5.76048949687500 
 S -5.54452833437500 4.77719809062500 6.02443749687500 
 S -2.60694833437500 1.73154309062500 3.32650249687500 
 S -2.66477933437500 5.01625909062500 3.17947449687500 
 S -3.38486833437500 1.18953409062500 7.28601549687500 
 S -3.15952533437500 5.42477109062500 7.23889649687500 
