16

 C -2.92716912187500 1.80974682500000 5.65101502812500 
 C -3.30356812187500 5.49897582500000 5.31751302812500 
 C -4.21307512187500 1.61789382500000 5.03225602812500 
 C -4.46578112187500 4.92050882500000 4.71461602812500 
 N -1.89540212187500 1.90442782500000 4.82585802812500 
 N -2.35198112187500 5.78735982500000 4.44707602812500 
 N -4.17524912187500 1.57827682500000 3.70216902812500 
 N -4.40040312187500 4.81630282500000 3.41503002812500 
 N -4.62880612187500 1.61082482499999 7.52995402812500 
 N -4.89800612187500 5.05696282500000 7.26405802812500 
 S -5.51499212187500 1.42017982500000 6.15263702812500 
 S -5.65451112187500 4.46195482500000 5.89271302812500 
 S -2.51056512187500 1.82058282500000 3.33858002812500 
 S -2.86746212187500 5.26755582500000 2.97150102812500 
 S -3.00037812187500 1.94566582500000 7.41740402812500 
 S -3.37993512187500 5.63118882500000 7.03785402812500 
