16

 C -2.97483104062500 1.52784664375001 5.35158265625000 
 C -3.17517304062500 5.16974664375001 5.40654065625000 
 C -4.21011704062500 1.08789364375001 4.64368165625000 
 C -4.31447604062500 4.50332364375001 4.84825865625000 
 N -1.87490704062500 1.67399764375001 4.60892465625000 
 N -2.09501104062500 5.33893264375001 4.63241865625000 
 N -4.03919304062500 0.996004643750005 3.34015065625000 
 N -4.15272804062500 4.26590864375001 3.55482765625000 
 N -4.81472904062500 1.20916764375001 7.18932065625000 
 N -4.74141604062500 4.69368364375001 7.36380365625000 
 S -5.56706104062500 1.03316264375001 5.72306865625000 
 S -5.59526504062500 4.21814664375001 6.02407365625000 
 S -2.42522104062500 1.24789564375001 3.01763165625000 
 S -2.62087104062500 4.77473764375001 3.11598865625000 
 S -3.20633904062500 1.65769864375001 7.07676665625000 
 S -3.23838804062500 5.27324864375001 7.08676265625000 
