16

 C -3.21094784687500 1.40813316250000 5.37427663437500 
 C -3.25689684687500 5.11670816250000 5.39126163437500 
 C -4.34561584687500 0.615187162500000 4.90962963437500 
 C -4.50758784687500 4.64120616250000 4.89188263437500 
 N -2.21027484687500 1.50270116250000 4.47789063437500 
 N -2.24495484687500 5.09125316250000 4.53363863437500 
 N -4.17413684687500 0.298975162500000 3.61537263437500 
 N -4.43942284687500 4.31587716250000 3.59641263437500 
 N -4.87232484687500 1.27249216250000 7.36005863437500 
 N -4.81507484687500 4.90401216250000 7.42332463437500 
 S -5.55861384687500 0.384982162500000 6.12453963437500 
 S -5.78455584687500 4.73604916250000 6.12645363437500 
 S -2.71985684687500 0.869783162499999 3.08835863437500 
 S -2.91353084687500 4.69754816250000 3.10411463437500 
 S -3.38067384687500 1.90825416250000 7.01306763437500 
 S -3.28438284687500 5.38228616250000 7.09123163437500 
