16

 C -3.04262439375000 1.83092730937500 5.77855673750000 
 C -3.07654539375000 5.32726030937500 5.68588873750000 
 C -4.33163039375000 1.65944930937500 5.14764473750000 
 C -4.35124939375000 5.01260030937500 5.04613173750000 
 N -2.02544739375000 2.02000130937500 4.93405573750000 
 N -2.12064639375000 5.51930330937500 4.80196473750000 
 N -4.27905439375000 1.57164330937500 3.81418873750000 
 N -4.33212539375000 4.92716430937500 3.72970973750000 
 N -4.80268739375000 1.39010530937500 7.62836573750000 
 N -4.81004339375000 5.02101330937500 7.54225873750000 
 S -5.65516639375000 1.40561530937500 6.21667973750000 
 S -5.63131739375000 4.77269430937500 6.11365073750000 
 S -2.72009639375000 1.62089030937500 3.48537173750000 
 S -2.76921539375000 5.18540130937500 3.26219073750000 
 S -3.15643539375000 1.82464030937500 7.50456673750000 
 S -3.15825939375000 5.31741130937500 7.47848373750000 
