16

 C -3.08054348125000 1.30179091875000 5.24567592187500 
 C -3.17605048125000 5.12061291875000 5.62263592187500 
 C -4.40370948125000 0.929811918750003 4.72458792187500 
 C -4.43924048125000 4.71840191875000 5.08500092187500 
 N -2.09800548125000 1.16247991875000 4.36886192187500 
 N -2.21187048125000 5.32497991875000 4.74177492187500 
 N -4.38663448125000 0.597807918750003 3.43890692187500 
 N -4.44258948125000 4.57382291875000 3.77100792187500 
 N -4.79661148125000 1.58520591875000 7.13234192187500 
 N -4.91259848125000 4.86556491875000 7.63843092187500 
 S -5.70967948125000 0.999321918750002 5.92918292187500 
 S -5.69017948125000 4.50666691875000 6.20561192187500 
 S -2.82653248125000 0.834061918750002 2.89107992187500 
 S -2.87556848125000 4.98353091875000 3.29152292187500 
 S -3.17142048125000 1.73745091875000 6.94703392187500 
 S -3.27186248125000 5.22156391875000 7.35248592187500 
