16

 C -3.45151684375000 1.30249746562500 5.44284902187500 
 C -3.20672084375000 5.09882246562500 5.84182902187500 
 C -4.63030884375000 0.917931465625000 4.74399102187500 
 C -4.47060584375000 4.80908746562500 5.20375602187500 
 N -2.39623484375000 1.53432246562500 4.63384902187500 
 N -2.22290084375000 5.50917346562500 4.99614902187500 
 N -4.48289384375000 0.725796465625001 3.40168802187500 
 N -4.40327984375000 4.74453246562500 3.88401102187500 
 N -5.19714984375000 0.989731465625001 7.28440102187500 
 N -4.95332184375000 4.67550646562500 7.68770502187500 
 S -5.84197084375000 0.373719465625000 5.83299902187500 
 S -5.72771984375000 4.34287946562500 6.24154102187500 
 S -2.87030984375000 1.24366346562500 3.13815502187500 
 S -2.86025384375000 5.25312746562500 3.48244302187500 
 S -3.58690884375000 1.23072346562500 7.19770602187500 
 S -3.35589884375000 5.28924846562500 7.58839602187500 
