16

 C -3.27077140937499 1.29549725937499 5.36935668125000 
 C -3.27491040937499 5.43917325937499 5.62149968125000 
 C -4.42824140937499 0.624481259374994 4.83818968125000 
 C -4.39486040937499 4.79790325937499 5.04057768125000 
 N -2.18272040937499 1.28085225937499 4.60605868125000 
 N -2.17706740937499 5.54072525937499 4.83819268125000 
 N -4.16925540937499 0.172892259374994 3.61502268125000 
 N -4.17795340937499 4.44678325937499 3.77822468125000 
 N -5.06679240937499 1.56343025937499 7.11376768125000 
 N -4.99485440937499 5.20614025937499 7.48687668125000 
 S -5.70100140937499 0.527150259374994 5.98975868125000 
 S -5.73808540937499 4.51202825937499 6.14746568125000 
 S -2.61156640937499 0.494907259374994 3.20079568125000 
 S -2.65351040937499 4.83393825937499 3.37125668125000 
 S -3.50199740937499 2.02097925937499 6.90675268125000 
 S -3.38174340937499 5.70445425937499 7.33295768125000 
