16

 C -3.19864936875000 1.41250485000000 5.55034230312500 
 C -3.57535836875000 4.88352585000000 5.03670230312500 
 C -4.32329036875000 0.703284850000000 4.97607830312500 
 C -4.67296636875000 4.15774885000000 4.47496030312500 
 N -2.20672936875000 1.64060685000000 4.69901830312500 
 N -2.58024736875000 5.10921785000000 4.17952230312500 
 N -4.31536736875000 0.585377850000000 3.65713330312500 
 N -4.59444036875000 4.01188285000000 3.17606130312500 
 N -4.79524736875000 1.15151585000000 7.48081630312500 
 N -5.30958536875000 4.49191585000000 6.87187730312500 
 S -5.52103136875000 0.435306850000000 6.17214230312500 
 S -5.97881436875000 3.81727985000000 5.52917930312500 
 S -2.75556636875000 1.04227085000000 3.26221030312500 
 S -3.15044236875000 4.59738885000000 2.70844430312500 
 S -3.29425536875000 1.86145785000000 7.26701330312500 
 S -3.91938736875000 5.27430385000000 6.73992030312500 
