16

 C -3.42437495000000 1.28855724062500 5.46696169687500 
 C -3.32300895000000 5.16680324062500 5.85351869687500 
 C -4.55160095000000 0.836014240625000 4.73558969687500 
 C -4.48009095000000 4.70186224062500 5.17653069687500 
 N -2.38510695000000 1.61075424062500 4.69249269687500 
 N -2.26957995000000 5.27199324062500 4.99606269687500 
 N -4.49260295000000 0.956093240625000 3.39408269687500 
 N -4.46887295000000 4.76975424062500 3.82842969687500 
 N -5.26858895000000 0.966797240625000 7.15460869687500 
 N -4.99254795000000 4.81313324062500 7.70639369687500 
 S -5.91339895000000 0.403143240625000 5.73475669687500 
 S -5.73969795000000 4.36708624062500 6.28119269687500 
 S -2.93854795000000 1.28933724062500 3.09401069687500 
 S -2.87760495000000 5.11547124062500 3.46702369687500 
 S -3.60528795000000 1.35448024062500 7.16154669687500 
 S -3.41217595000000 5.23739824062500 7.60579469687500 
