16

 C -3.59010350000000 1.87515780625000 5.30692832500000 
 C -3.23135850000000 5.00840480625000 5.66291732500000 
 C -4.63369650000000 1.23267880625000 4.58982632500000 
 C -4.49491950000000 4.74894980625000 5.03716932500000 
 N -2.48239650000000 2.06234680625000 4.58930032500000 
 N -2.20070850000000 5.13400280625000 4.87990132500000 
 N -4.35299150000000 0.887429806249998 3.37222732500000 
 N -4.38901750000000 4.61497480625000 3.74097232500000 
 N -5.37886150000000 1.32274380625000 7.08581732500000 
 N -4.97590150000000 5.01247180625000 7.62815832500000 
 S -5.91620550000000 0.777447806249998 5.63650632500000 
 S -5.82490050000000 4.75710280625000 6.16404032500000 
 S -2.79964550000000 1.57957080625000 3.06996732500000 
 S -2.78232650000000 4.84662080625000 3.34524832500000 
 S -3.84826250000000 1.85438380625000 7.09656732500000 
 S -3.32581350000000 5.22109280625000 7.41282332500000 
