16

 C -3.23496639062500 1.39549729062500 5.68728592187500 
 C -3.31950839062500 5.14601629062500 5.41115492187500 
 C -4.33727639062500 0.879384290625000 5.01164392187500 
 C -4.55860839062500 4.70433829062500 4.78524992187500 
 N -2.21734139062500 1.67677829062500 4.91934292187500 
 N -2.29088739062500 5.36458529062500 4.58366892187500 
 N -4.21992439062500 0.755278290625000 3.71296992187500 
 N -4.47803139062500 4.74468329062500 3.44287192187500 
 N -5.11569739062500 1.15853629062500 7.35061192187500 
 N -5.06575439062500 4.89857929062500 7.27530292187500 
 S -5.74965539062500 0.579430290625001 5.90927692187500 
 S -5.89077439062500 4.39659729062500 5.89043592187500 
 S -2.64271339062500 1.16247529062500 3.42622492187500 
 S -2.88127339062500 5.16390629062500 3.06792692187500 
 S -3.53409539062500 1.59626829062500 7.37148292187500 
 S -3.48705739062500 5.27957629062500 7.11363192187500 
