16

 C -3.07405754687500 1.34168229687500 5.67076404375000 
 C -3.40788454687500 5.40696929687500 5.33730004375000 
 C -4.17953254687500 0.643618296875000 5.03531904375000 
 C -4.30433854687500 4.36796729687500 4.85014004375000 
 N -2.03103954687500 1.51136229687500 4.81926704375000 
 N -2.39559254687500 5.62286629687500 4.52654304375000 
 N -4.02030454687500 0.343416296875001 3.75996604375000 
 N -4.09805854687500 3.95244429687500 3.61380104375000 
 N -4.94822654687500 1.00920429687500 7.50259804375000 
 N -5.11006254687500 5.05179029687500 7.24840804375000 
 S -5.50741954687500 0.286955296875000 6.15772704375000 
 S -5.68939154687500 4.13054329687500 5.93737704375000 
 S -2.50497454687500 1.03803129687500 3.33903004375000 
 S -2.66246354687500 4.69443529687500 3.13981904375000 
 S -3.39349054687500 1.58658729687500 7.32156304375000 
 S -3.66014554687500 5.86483029687500 7.02393504375000 
