16

 C -3.11195212187500 0.919213937499999 5.60095839062500 
 C -3.27534412187500 4.83487593750000 5.26578439062500 
 C -4.33178912187500 0.754783937499999 4.95567639062500 
 C -4.48080812187500 4.31034793750000 4.62322139062500 
 N -2.08122812187500 1.19960393750000 4.74387639062500 
 N -2.30962712187500 5.15714293750000 4.38183339062500 
 N -4.30078012187500 0.697545937499999 3.61401239062500 
 N -4.33625712187500 4.05644693750000 3.31958639062500 
 N -4.93700812187500 0.756850937499999 7.48719139062500 
 N -5.10924812187500 4.72398193750000 7.11249139062500 
 S -5.67721212187500 0.516379937499999 6.03106139062500 
 S -5.85448412187500 4.04318793750000 5.72692339062500 
 S -2.73378312187500 1.01772293750000 3.23580139062500 
 S -2.83230512187500 4.64885993750000 2.90678139062500 
 S -3.27416512187500 0.874793937499999 7.33206039062500 
 S -3.57345612187500 5.30529793750000 6.89074539062500 
