16

 C -2.91636794687500 1.81591855937500 5.40317722500000 
 C -3.51708394687500 5.14848955937500 5.57094322500000 
 C -4.00968094687500 1.09834155937500 4.73589522500000 
 C -4.60344694687500 4.48623155937500 4.90552722500000 
 N -1.94306494687500 2.18908555937500 4.59443922500000 
 N -2.59152294687500 5.59671755937500 4.72958022500000 
 N -3.78910694687500 0.848843559375001 3.44460022500000 
 N -4.46901694687500 4.30714955937500 3.58544922500000 
 N -4.55308894687500 1.13336055937500 7.27338222500000 
 N -5.29490894687500 4.73716955937500 7.35233422500000 
 S -5.13416194687500 0.426447559375001 5.87250622500000 
 S -5.84646794687500 3.92828155937500 6.02367622500000 
 S -2.29919094687500 1.54530555937500 3.08904222500000 
 S -2.99727094687500 5.03458455937500 3.25497722500000 
 S -3.07534294687500 1.91366555937500 7.16091722500000 
 S -3.74593694687500 5.33389455937500 7.24831722500000 
