16

 C -2.90552459687500 1.73865326874999 5.43746526562500 
 C -3.22237859687500 5.12254126874999 5.61942826562500 
 C -4.20719559687500 1.28876026874999 4.87181126562500 
 C -4.42668159687500 4.61197726874999 5.01557426562500 
 N -1.88834559687500 1.81109726874999 4.56826626562500 
 N -2.15363459687500 5.26918626874999 4.82482526562500 
 N -4.18463159687500 1.09949626874999 3.53856626562500 
 N -4.32360259687500 4.53948826875000 3.69892726562500 
 N -4.52450759687500 1.87315626874999 7.37533826562500 
 N -4.94602559687500 4.87405426875000 7.58061826562500 
 S -5.45384659687500 1.30567326875000 6.07622926562500 
 S -5.80174959687500 4.54502026875000 6.13218326562500 
 S -2.62141259687500 1.49708026875000 3.10507126562500 
 S -2.74230459687500 5.00782926875000 3.31123326562500 
 S -2.82829259687500 1.99929326875000 7.14595626562500 
 S -3.33058559687500 5.23764326874999 7.31313926562500 
