16

 C -3.12876676875000 1.27363287187499 5.41442504375000 
 C -3.26650576875000 5.36219687187499 5.58529704375000 
 C -4.31644776875000 0.603485871874994 4.86641604375000 
 C -4.38205476875000 4.74143987187500 4.99062904375000 
 N -2.08317076875000 1.23836887187499 4.58311304375000 
 N -2.17789276875000 5.61089587187499 4.80553204375000 
 N -4.23491376875000 0.114394871874995 3.61886704375000 
 N -4.17329476875000 4.33081987187500 3.70906404375000 
 N -5.09412876875000 1.38174387187500 7.19897504375000 
 N -4.93550276875000 5.19428687187500 7.51718504375000 
 S -5.69264576875000 0.522168871874995 5.85705504375000 
 S -5.70312976875000 4.68273287187499 6.14933304375000 
 S -2.62673576875000 0.410841871874995 3.21222004375000 
 S -2.58951976875000 4.91960687187500 3.37144404375000 
 S -3.53329576875000 1.98704787187499 6.99697304375000 
 S -3.39395576875000 5.66750487187499 7.28276804375000 
