16

 C -3.17701792187500 0.935096381249999 5.62227174062500 
 C -3.30515592187500 4.88739538125000 5.28026874062500 
 C -4.41321292187500 0.699740381249999 4.87868574062500 
 C -4.42248192187500 4.26576638125000 4.65010274062500 
 N -2.10830992187500 1.09735338125000 4.85763374062500 
 N -2.19431392187500 5.02271438125000 4.54991774062500 
 N -4.30037792187500 0.845352381249999 3.57212074062500 
 N -4.27503692187500 4.21696738125000 3.31339574062500 
 N -4.91738792187500 0.699492381249999 7.37032874062500 
 N -5.01235992187500 4.67173738125000 7.15186774062500 
 S -5.74500392187500 0.450221381249999 5.91557974062500 
 S -5.74535992187500 4.11793038125000 5.77321374062500 
 S -2.63754792187500 0.929173381249999 3.28524474062500 
 S -2.71336692187500 4.70666238125000 2.98615774062500 
 S -3.25084392187500 0.879418381249999 7.37461374062500 
 S -3.48669792187500 5.37046338125000 6.90154674062500 
