16

 C -3.05690064062500 1.24985424687500 5.52073347500000 
 C -2.95358164062500 5.25761324687500 5.49989447500000 
 C -4.23150364062500 0.904498246875000 4.71506747500000 
 C -4.19885564062500 4.94305724687500 4.86386247500000 
 N -1.90796764062500 1.32083024687500 4.87797747500000 
 N -1.88539164062500 5.20888624687500 4.67344647500000 
 N -3.90767464062500 0.852554246874999 3.44809247500000 
 N -4.08772064062500 4.67874024687500 3.55917747500000 
 N -4.91545964062500 1.30974924687500 7.15132747500000 
 N -4.78644864062500 5.21878124687500 7.38900047500000 
 S -5.62221464062500 0.712462246875000 5.83134647500000 
 S -5.57130264062500 4.89171724687500 5.88244247500000 
 S -2.29201564062500 1.03309724687500 3.25914047500000 
 S -2.52224164062500 4.85840624687500 3.11959947500000 
 S -3.28282264062500 1.47100924687500 7.19891947500000 
 S -3.07443964062500 5.48578224687500 7.27781147500000 
