16

 C -3.05949270312500 1.55546034375000 5.71565188750000 
 C -3.04083370312500 5.24715534375000 5.80787188750000 
 C -4.22012570312500 1.04198734375000 5.05187088750000 
 C -4.29051570312500 4.95586034375000 5.13614088750000 
 N -2.00386670312500 1.57573834375000 4.88001888750000 
 N -1.94929870312500 5.28807434375000 5.04429288750000 
 N -4.13146870312500 0.878436343750002 3.72685488750000 
 N -4.11556170312500 4.87577934375000 3.83805388750000 
 N -4.95464670312500 1.35487334375000 7.43247888750000 
 N -4.87452170312500 5.09585934375000 7.61598388750000 
 S -5.57061270312500 0.693674343750001 6.02122288750000 
 S -5.65712070312500 4.75938434375000 6.21482888750000 
 S -2.57462670312500 1.25217834375000 3.40156188750000 
 S -2.53569770312500 5.14680934375000 3.51110788750000 
 S -3.30836870312500 1.84692334375000 7.41738588750000 
 S -3.28942170312500 5.43748134375000 7.52515388750000 
