16

 C -3.03388991562500 1.83358300000000 5.79338634062500 
 C -3.07276491562500 5.32889300000000 5.68887434062500 
 C -4.33002791562500 1.67280300000000 5.14921534062500 
 C -4.35393091562500 5.03495400000000 5.04633634062500 
 N -2.01637391562500 2.03241500000000 4.94032934062500 
 N -2.13109791562500 5.52183300000000 4.80207834062500 
 N -4.28248991562500 1.55733900000000 3.80109434062500 
 N -4.34504991562500 4.90531100000000 3.72790834062500 
 N -4.79030191562500 1.38681900000000 7.62098634062500 
 N -4.80848391562500 5.02608900000000 7.54132934062500 
 S -5.64948891562500 1.41299800000000 6.21908534062500 
 S -5.62943991562500 4.77778900000000 6.11779934062500 
 S -2.71784891562500 1.62321200000000 3.49123634062500 
 S -2.76719991562500 5.18150700000000 3.26413334062500 
 S -3.15692991562500 1.81703400000000 7.50398634062500 
 S -3.15678291562500 5.31891100000000 7.47966934062500 
