16

 C -3.13911202187500 1.37581765625000 5.52492829687500 
 C -2.90150802187500 5.19056765625000 5.88583629687500 
 C -4.32574102187500 0.984601656250002 4.88595329687500 
 C -4.07022002187500 4.75320465625000 5.17105129687500 
 N -2.15714902187500 1.67982365625000 4.68630729687500 
 N -1.86721302187500 5.49373265625000 5.08860529687500 
 N -4.19161302187500 0.811551656250002 3.58220329687500 
 N -3.84570402187500 4.55123365625000 3.86196329687500 
 N -4.87526702187500 0.801774656250002 7.32903229687500 
 N -4.77179402187500 4.83932365625000 7.64823829687500 
 S -5.67259402187500 0.680867656250002 5.87995429687500 
 S -5.52657802187500 4.67572365625000 6.18690129687500 
 S -2.72427802187500 1.46317165625000 3.17412729687500 
 S -2.32580402187500 5.11703765625000 3.57139329687500 
 S -3.27457302187500 1.33070465625000 7.27358329687500 
 S -3.18271102187500 5.36639065625000 7.56011229687500 
