16

 C -3.12095855000000 0.905884596875001 5.73873278125000 
 C -3.27714555000000 5.21638259687500 5.61007578125000 
 C -4.37265455000000 0.648682596875001 5.02667978125000 
 C -4.33803655000000 4.48227359687500 4.98234878125000 
 N -2.07232055000000 1.15174759687500 4.94921878125000 
 N -2.28121655000000 5.53728359687500 4.79736078125000 
 N -4.24801455000000 0.645198596875001 3.68861078125000 
 N -4.20956055000000 4.41201059687500 3.67899878125000 
 N -4.96040955000000 0.935476596875001 7.54135678125000 
 N -5.08076455000000 4.78745559687500 7.36916978125000 
 S -5.70851755000000 0.586667596875001 6.09370578125000 
 S -5.59126755000000 3.87078159687500 6.05544878125000 
 S -2.63668455000000 0.928564596875001 3.42935178125000 
 S -2.78191455000000 5.10283159687500 3.26312078125000 
 S -3.26368655000000 1.18223159687500 7.45729278125000 
 S -3.47377455000000 5.26377659687500 7.31957678125000 
