16

 C -3.15332993437500 1.67922312500000 5.42185892187500 
 C -3.67177893437500 4.98006512500000 5.03206092187500 
 C -4.15477993437500 0.738776124999999 4.92595092187500 
 C -4.74470793437500 4.22350012500000 4.38166492187500 
 N -2.14032993437500 1.85272212500000 4.56997592187500 
 N -2.64366393437500 5.19824112500000 4.22656192187500 
 N -3.95678693437500 0.292421124999999 3.70425692187500 
 N -4.49943593437500 3.95505412500000 3.10529792187500 
 N -4.86724293437500 1.36891612500000 7.41289692187500 
 N -5.38939393437500 4.76452412500000 6.82541192187500 
 S -5.54017093437500 0.510544124999999 6.15229392187500 
 S -6.00277593437500 3.89444712500000 5.56564292187500 
 S -2.59393693437500 1.10605512500000 3.14919392187500 
 S -2.99815493437500 4.59200812500000 2.77416792187500 
 S -3.39766093437500 2.09120312500000 7.16283792187500 
 S -3.85274493437500 5.21406012500000 6.74108392187500 
