16

 C -3.22108937812500 1.60487048750000 5.63330643125000 
 C -3.01749237812500 5.25842248750000 5.89245543125000 
 C -4.27213137812500 0.848064487500002 4.97082943125000 
 C -4.21726837812500 4.67818648750000 5.31648043125000 
 N -2.27777437812500 2.06594348750000 4.83107943125000 
 N -2.06429737812500 5.65286948750000 4.98565343125000 
 N -4.08926837812500 0.800869487500002 3.67099343125000 
 N -4.16174437812500 4.47162848750000 4.01261643125000 
 N -5.05226837812500 1.11092448750000 7.48395043125000 
 N -4.70833037812500 4.95836948750000 7.80452643125000 
 S -5.66391537812500 0.612146487500002 5.94872743125000 
 S -5.54905537812500 4.54096048750000 6.51160943125000 
 S -2.67749337812500 1.48785648750000 3.32137343125000 
 S -2.67642037812500 5.10253148750000 3.53197743125000 
 S -3.52442437812500 1.82668148750000 7.40962943125000 
 S -3.19639837812500 5.53509648750000 7.63471743125000 
