16

 C -3.18917981875000 1.15102891250000 5.54259037500000 
 C -3.13659381875000 5.41448691250000 5.60768837500000 
 C -4.43565781875000 0.788242912500000 4.85991337500000 
 C -4.30193581875000 4.93676491250000 4.89957137500000 
 N -2.14578781875000 1.43659291250000 4.70807737500000 
 N -2.13932281875000 5.83706491250000 4.79310637500000 
 N -4.32648781875000 0.749724912500001 3.52378337500000 
 N -4.13927981875000 4.88215791250000 3.55484837500000 
 N -4.96697181875000 0.985977912500000 7.37320837500000 
 N -4.84973681875000 4.77496891250000 7.46896137500000 
 S -5.75773181875000 0.468279912500001 6.04345937500000 
 S -5.49871381875000 4.35585691250000 5.96839537500000 
 S -2.76337281875000 1.04041391250000 3.14479137500000 
 S -2.63927381875000 5.58773791250000 3.24473937500000 
 S -3.30858481875000 1.25214791250000 7.23811437500000 
 S -3.36551281875000 5.50380591250000 7.34209637500000 
