16

 C -3.13046999687500 1.36807741562500 5.30832328437500 
 C -3.01804999687500 4.95985141562500 5.57224328437500 
 C -4.24731599687500 0.626672415625002 4.65940028437500 
 C -4.29571399687500 4.60061941562500 5.03748028437500 
 N -2.24852599687500 1.71641841562500 4.37589628437500 
 N -2.02682299687500 5.05523741562500 4.66838928437500 
 N -4.06093699687500 0.463775415625002 3.35548028437500 
 N -4.27720499687500 4.53347641562500 3.70303428437500 
 N -4.90156499687500 0.950014415625002 7.18620128437500 
 N -4.58550899687500 4.84690741562500 7.61933728437500 
 S -5.55629099687500 0.297461415625002 5.78297428437500 
 S -5.53909399687500 4.41070041562500 6.29954028437500 
 S -2.58195499687500 1.09409541562500 2.91692628437500 
 S -2.72472099687500 4.76677741562500 3.22015428437500 
 S -3.39980499687500 1.55755141562500 7.02114428437500 
 S -2.98067799687500 5.04274041562500 7.28712028437500 
