16

 C -3.14118533125000 1.51326138125000 5.66642110937500 
 C -3.01620533125000 4.59971338125000 5.43286210937500 
 C -4.34391533125000 1.06772838125000 5.06220610937500 
 C -4.20739933125000 4.10901138125000 4.82286910937500 
 N -2.05490433125000 1.56094538125000 4.87077710937500 
 N -2.04840133125000 4.81862638125000 4.55913710937500 
 N -4.28941633125000 0.828366381249998 3.72345410937500 
 N -4.14325633125000 3.83083938125000 3.52869810937500 
 N -4.87106433125000 1.33919238125000 7.68191710937500 
 N -4.83902233125000 4.49609638125000 7.28329410937500 
 S -5.67546033125000 1.04637438125000 6.28358310937500 
 S -5.59843233125000 4.10474238125000 5.85498010937500 
 S -2.68787633125000 1.14073638125000 3.38987010937500 
 S -2.58445333125000 4.27938638125000 3.11808110937500 
 S -3.24096333125000 1.67474638125000 7.41900210937500 
 S -3.22514533125000 4.68801738125000 7.17021910937500 
