16

 C -3.31681736250000 1.26540764687500 5.52714816250000 
 C -3.27866336250000 5.00013564687500 5.13964416250000 
 C -4.56623736250000 0.939728646875002 4.85380516250000 
 C -4.44452936250000 4.38295664687500 4.53358916250000 
 N -2.26859536250000 1.26916864687500 4.70231316250000 
 N -2.29826736250000 5.21156564687500 4.30501716250000 
 N -4.50707736250000 0.891923646875002 3.51669816250000 
 N -4.27475436250000 4.07330664687500 3.26938616250000 
 N -5.16240236250000 1.10530764687500 7.33157016250000 
 N -4.95234536250000 4.91634064687500 7.03639116250000 
 S -5.91744036250000 0.681299646875002 5.89797916250000 
 S -5.76937236250000 4.43736364687500 5.65260416250000 
 S -2.86289136250000 1.15302664687500 3.18117816250000 
 S -2.70504836250000 4.59340064687500 2.85383816250000 
 S -3.56357236250000 1.45812464687500 7.26014616250000 
 S -3.38331136250000 5.28201564687500 6.80383016250000 
