16

 C -3.26038350000000 1.37004260312500 5.30954923750000 
 C -3.19355350000000 5.36493360312500 5.70234623750000 
 C -4.41261050000000 0.632255603124998 4.79553123750000 
 C -4.36736550000000 4.81178760312500 5.07689823750000 
 N -2.15035950000000 1.35969560312500 4.57174623750000 
 N -2.16644450000000 5.47273360312500 4.80387523750000 
 N -4.18846750000000 7.940860312499787E-002 3.59440623750000 
 N -4.29864650000000 4.46911660312500 3.76733823750000 
 N -5.07092550000000 1.62632360312500 7.15237123750000 
 N -4.99355650000000 5.14241960312500 7.48259023750000 
 S -5.73423550000000 0.597088603124998 6.00952723750000 
 S -5.67083550000000 4.47608460312500 6.10592023750000 
 S -2.59604850000000 0.613559603124998 3.19906823750000 
 S -2.69340350000000 4.82951660312500 3.38312423750000 
 S -3.44555750000000 2.04496360312500 6.88863723750000 
 S -3.45642950000000 5.74248560312500 7.40583423750000 
