16

 C -3.04762232812500 1.53198920625001 5.74390778125000 
 C -3.28594132812500 4.87250320625001 5.60902278125000 
 C -4.17740532812500 1.17807320625001 4.92719678125000 
 C -4.39052432812500 4.46956420625001 4.75619278125000 
 N -2.01257632812500 1.75266420625001 4.97565778125000 
 N -2.12397932812500 4.98101320625001 4.92804578125000 
 N -3.99867732812500 1.02895820625001 3.60933978125000 
 N -4.08933532812500 4.17153020625001 3.48542078125000 
 N -4.98182632812500 1.07162920625001 7.29717578125000 
 N -5.31280432812500 4.63799720625001 7.27895278125000 
 S -5.64030432812500 1.03493720625001 5.86408178125000 
 S -5.88059532812500 4.33534820625001 5.76442478125000 
 S -2.41574032812500 1.25519120625001 3.43361378125000 
 S -2.46290932812500 4.50478520625001 3.36027578125000 
 S -3.44585632812500 1.61143220625001 7.45957578125000 
 S -3.64999132812500 5.02168920625001 7.27584278125000 
