16

 C -3.01696766875000 1.26662617500000 5.65736923750000 
 C -3.04486166875000 5.17944417500000 5.35622123750000 
 C -4.19589166875000 0.795543175000001 4.94399723750000 
 C -4.13030866875000 4.28972517500000 4.95190623750000 
 N -1.99944066875000 1.40047617500000 4.83192223750000 
 N -1.99930166875000 5.25008117500000 4.53512623750000 
 N -4.07568966875000 0.603973175000001 3.64947223750000 
 N -3.95380766875000 3.81374017500000 3.72178423750000 
 N -4.77770466875000 0.927426175000001 7.53362523750000 
 N -4.82398566875000 5.18277717500000 7.27255023750000 
 S -5.57261966875000 0.706826175000001 6.04741123750000 
 S -5.38873266875000 4.18878517500000 6.11587623750000 
 S -2.42693866875000 1.01057617500000 3.31142223750000 
 S -2.50351466875000 4.43135217500000 3.16273823750000 
 S -3.21492966875000 1.62009017500000 7.42378123750000 
 S -3.31862066875000 5.73972017500000 7.00915623750000 
