16

 C -2.85196282499999 1.28568851875000 5.72969060625000 
 C -2.93444582499999 4.89148151875000 5.40040760625000 
 C -4.20076182499999 1.21886351875000 5.19793960625000 
 C -4.15013082499999 4.58404851875000 4.72802260625000 
 N -1.91389282499999 1.03380351875000 4.77562360625000 
 N -1.84496282499999 4.86823851875000 4.62932860625000 
 N -4.36236182499999 0.776936518750003 3.95407560625000 
 N -4.00725582499999 4.32722551875000 3.42198160625000 
 N -4.54793982499999 1.57491551875000 7.62885560625000 
 N -4.79324582499999 4.86791651875000 7.27725860625000 
 S -5.48531682499999 1.44221851875000 6.29657260625000 
 S -5.58303182499999 4.49500851875000 5.85616460625000 
 S -2.74997982499999 0.586366518750004 3.37377060625000 
 S -2.31926782499999 4.43745151875000 3.11134060625000 
 S -2.88762482499999 1.54192751875000 7.43126560625000 
 S -3.05506682499999 4.89137151875000 7.11242560625000 
