16

 C -3.78106822187500 1.14231766875000 5.66286680937500 
 C -3.09587422187500 5.01006566875000 5.30216080937500 
 C -4.87449422187500 0.519194668750003 4.93629580937500 
 C -4.31760322187500 4.40825266875000 4.81617680937500 
 N -2.73257922187500 1.48156066875000 4.88938380937500 
 N -2.06574622187500 5.10076666875000 4.46974880937500 
 N -4.67842322187500 0.535873668750003 3.61432080937500 
 N -4.26360722187500 4.22991766875000 3.51357280937500 
 N -5.60594022187500 0.671145668750002 7.41576980937500 
 N -4.75944322187500 5.02094466875000 7.31311580937500 
 S -6.18223222187500 0.185904668750003 5.97032980937500 
 S -5.55435922187500 4.24814066875000 6.06999480937500 
 S -3.10963022187500 1.15258466875000 3.29492280937500 
 S -2.67188322187500 4.52241066875000 3.01598780937500 
 S -4.06374322187500 1.20158966875000 7.40447480937500 
 S -3.16381522187500 5.46579266875000 6.96653480937500 
