16

 C -3.26598369062500 1.11417058750000 5.52006281562500 
 C -3.19296969062500 5.32928358750000 5.77241481562500 
 C -4.50277669062500 0.676865587499997 4.86002281562500 
 C -4.37216269062500 4.84231258750000 5.04962381562500 
 N -2.37581269062500 1.53396458750000 4.65478981562500 
 N -2.27605269062500 5.82980958750000 4.99803181562500 
 N -4.45361869062500 0.661663587499998 3.52814181562500 
 N -4.19887669062500 4.72738858750000 3.73479881562500 
 N -5.02757969062500 0.776998587499998 7.37675681562500 
 N -4.83783069062500 4.60908958750000 7.61937981562500 
 S -5.87671269062500 0.444734587499998 5.91894881562500 
 S -5.59798269062500 4.38765758750000 6.21280581562500 
 S -2.86683369062500 1.16627858750000 3.18491781562500 
 S -2.71726669062500 5.49072458750000 3.42414181562500 
 S -3.43806069062500 1.22697658750000 7.21706781562500 
 S -3.33431169062500 5.29675758750000 7.54327281562500 
