16

 C -3.11304785625000 1.46862805312500 5.64598094375000 
 C -2.98647285625000 5.29061605312500 5.87597494375000 
 C -4.28738385625000 1.11640605312500 4.95845694375000 
 C -4.19456185625000 4.94000505312500 5.15747494375000 
 N -2.01578085625000 1.62317105312500 4.88528094375000 
 N -1.94708885625000 5.47782405312500 5.08022994375000 
 N -4.16948285625000 0.914652053125002 3.63933594375000 
 N -4.09745685625000 4.80637005312500 3.85840094375000 
 N -4.93830285625000 1.23623905312500 7.49171894375000 
 N -4.91413685625000 5.01225605312500 7.66447494375000 
 S -5.62003485625000 0.691633053125001 6.07772394375000 
 S -5.60017385625000 4.77051805312500 6.15004394375000 
 S -2.55629885625000 1.27998105312500 3.26602594375000 
 S -2.47662885625000 5.08611505312500 3.49548094375000 
 S -3.36987985625000 1.68458505312500 7.37824794375000 
 S -3.23923285625000 5.33293105312500 7.60117994375000 
