16

 C -3.11348150312500 1.56886260625000 5.54092953125000 
 C -3.06162950312500 5.03581560625000 5.53869353125000 
 C -4.43796350312500 1.56477960625000 4.97898253125000 
 C -4.31414350312500 4.75885660625000 4.90297853125000 
 N -2.21087350312500 1.69998060625000 4.59830753125000 
 N -2.05515050312500 5.32117760625000 4.71082653125000 
 N -4.51729750312500 1.63527460625000 3.67313253125000 
 N -4.30841250312500 4.85385760625000 3.57549253125000 
 N -4.84514250312500 1.55564760625000 7.49547053125000 
 N -4.74091450312500 4.47522860625000 7.41462253125000 
 S -5.71680850312500 1.46249360625000 6.09950153125000 
 S -5.56980350312500 4.33637960625000 5.99168553125000 
 S -2.87753950312500 1.62825760625000 3.05559853125000 
 S -2.72712150312500 5.20422960625000 3.17018353125000 
 S -3.15668650312500 1.66987660625000 7.27725053125000 
 S -3.14520250312500 4.93756760625000 7.26616553125000 
