16

 C -3.15198220312500 1.36774560312500 5.31014038125000 
 C -3.00682120312500 4.96841660312500 5.58754738125000 
 C -4.24123520312500 0.617243603124997 4.65569538125000 
 C -4.28297920312500 4.57235160312500 5.03559438125000 
 N -2.24280520312500 1.71477460312500 4.39191138125000 
 N -2.04083120312500 5.07974460312500 4.67974938125000 
 N -4.06236320312500 0.486329603124997 3.33869038125000 
 N -4.27202520312500 4.51891860312500 3.69899538125000 
 N -4.89797420312500 0.928481603124997 7.18720838125000 
 N -4.56479520312500 4.83390260312500 7.61303238125000 
 S -5.56174120312500 0.303793603124997 5.77704338125000 
 S -5.53102320312500 4.41795060312500 6.30129738125000 
 S -2.57068020312500 1.10834160312500 2.91285838125000 
 S -2.70970020312500 4.76384260312500 3.21902038125000 
 S -3.39611320312500 1.54240860312500 7.01292938125000 
 S -2.96894820312500 5.04218860312500 7.30953838125000 
