16

 C -3.27083902812500 1.50151231250000 5.25737659375000 
 C -3.08978702812500 5.06947931250000 5.44390859375000 
 C -4.42276402812500 0.919252312500001 4.57230459375000 
 C -4.28878302812500 4.61341531250000 4.79066659375000 
 N -2.17635502812500 1.53604431250000 4.49608959375000 
 N -1.99557702812500 5.00996531250000 4.68202959375000 
 N -4.22195202812500 0.628506312500000 3.28727759375000 
 N -4.05070802812500 4.07123031250000 3.59639859375000 
 N -5.07847602812500 1.02747031250000 7.05845659375000 
 N -4.86398602812500 4.91399431250000 7.30549359375000 
 S -5.76708802812500 0.508293312500001 5.62693959375000 
 S -5.64073702812500 4.47208031250000 5.89218159375000 
 S -2.62904702812500 0.879678312500001 3.02396359375000 
 S -2.45210702812500 4.22929531250000 3.26466359375000 
 S -3.59520802812500 1.69567231250000 6.96561659375000 
 S -3.33030902812500 5.47499931250000 7.09601959375000 
