16

 C -3.32768942500000 1.49797358125000 5.48509207812500 
 C -3.31386142500000 5.15011658125000 5.36247307812500 
 C -4.56957942500000 0.988946581249999 4.76030307812500 
 C -4.51067342500000 4.52243158125000 4.81040007812500 
 N -2.30314642500000 1.63356458125000 4.67939707812500 
 N -2.33547642500000 5.40733458125000 4.50184607812500 
 N -4.39731142500000 0.860708581249999 3.45828207812500 
 N -4.45165542500000 4.45630858125000 3.49969907812500 
 N -5.03222042500000 1.25652858125000 7.32890707812500 
 N -5.00580242500000 4.65018858125000 7.26952307812500 
 S -5.83600942500000 0.723262581249999 5.94429907812500 
 S -5.78142542500000 4.08986458125000 5.87830307812500 
 S -2.79700542500000 1.20332558125000 3.17804607812500 
 S -2.91416842500000 4.86345858125000 3.04765007812500 
 S -3.36160342500000 1.49434158125000 7.21257007812500 
 S -3.41386742500000 5.13702758125000 7.12849407812500 
