16

 C -3.10051970937500 1.55013387812500 5.68864113125000 
 C -3.16819470937500 4.88112787812500 5.58985913125000 
 C -4.26318970937500 1.18753087812500 4.89370313125000 
 C -4.30932070937500 4.43388987812500 4.88325713125000 
 N -1.95014570937500 1.66978787812500 5.05602013125000 
 N -2.01219070937500 4.93587287812500 4.85892013125000 
 N -3.94717370937500 0.978353878125000 3.66045513125000 
 N -4.04971970937500 4.11671087812500 3.65935813125000 
 N -4.95253570937500 1.12859087812500 7.43866013125000 
 N -5.22728370937500 4.63494687812500 7.18247813125000 
 S -5.69736470937500 1.09835887812500 5.90008713125000 
 S -5.84295870937500 4.38651187812500 5.64388913125000 
 S -2.27712670937500 1.32676387812500 3.48709813125000 
 S -2.44633570937500 4.38383387812500 3.33611213125000 
 S -3.32054870937500 1.60685087812500 7.39418313125000 
 S -3.65698470937500 4.99800487812500 7.31223613125000 
