16

 C -3.10937872500000 1.47398023125000 5.37856294687500 
 C -3.43626072500000 5.25999923125000 5.25135894687500 
 C -4.31458772500000 0.799582231250002 4.92200994687500 
 C -4.46029072500000 4.45220023125000 4.64406694687500 
 N -2.19170672500000 1.70511623125000 4.42975394687500 
 N -2.45028972500000 5.64839723125000 4.47547594687500 
 N -4.26083572500000 0.342093231250002 3.66381094687500 
 N -4.20799872500000 4.13540823125000 3.37963794687500 
 N -4.78044172500000 1.29017123125000 7.44956794687500 
 N -5.12733572500000 4.92326523125000 7.05712994687500 
 S -5.54531872500000 0.557198231250002 6.13793894687500 
 S -5.72357272500000 4.09547123125000 5.73774194687500 
 S -2.83320872500000 0.990816231250002 3.04409394687500 
 S -2.73173472500000 4.99565223125000 2.97515194687500 
 S -3.22396372500000 1.84726623125000 7.19007294687500 
 S -3.66045572500000 5.59456823125000 6.94006394687500 
