16

 C -2.96629408125000 1.45713235625000 5.57961054687500 
 C -2.97127908125000 5.07702135625000 5.16936054687500 
 C -4.12826208125000 0.975440356250002 4.84562754687500 
 C -4.30308808125000 4.78695835625000 4.59796154687500 
 N -1.86222108125000 1.42097935625000 4.80799254687500 
 N -1.99349608125000 4.91809535625000 4.31211654687500 
 N -3.98515508125000 0.661004356250002 3.56311154687500 
 N -4.31860508125000 4.71293835625000 3.28510054687500 
 N -4.85344808125000 1.42872935625000 7.26983154687500 
 N -4.72846808125000 5.15580035625000 7.14932254687500 
 S -5.57761608125000 0.896705356250002 5.83306854687500 
 S -5.61423708125000 4.81203235625000 5.77685654687500 
 S -2.36130208125000 0.986060356250002 3.28194654687500 
 S -2.66910308125000 4.63221535625000 2.82686354687500 
 S -3.24772008125000 1.76693335625000 7.24992054687500 
 S -3.09062208125000 5.31785235625000 6.89697454687500 
