16

 C -3.12697764687500 1.41079344062500 5.64887561875000 
 C -3.32557164687500 4.86134144062500 5.56910661875000 
 C -4.33880464687500 1.11109544062500 4.91352561875000 
 C -4.50150464687500 4.46703444062500 4.86230961875000 
 N -2.02119364687500 1.46495344062500 4.86216161875000 
 N -2.22492364687500 5.06850844062500 4.88618761875000 
 N -4.09079564687500 0.909031440624998 3.57485261875000 
 N -4.26823064687500 4.42019344062500 3.54490961875000 
 N -5.03432464687500 1.23200644062500 7.34801261875000 
 N -5.31245864687500 4.84595244062500 7.19179061875000 
 S -5.78315064687500 0.872291440624998 5.97071361875000 
 S -5.90130464687500 4.10837044062500 5.83300861875000 
 S -2.53575164687500 1.28576644062500 3.30792661875000 
 S -2.71237464687500 4.79479344062500 3.30784061875000 
 S -3.43310864687500 1.58150344062500 7.33523261875000 
 S -3.61073264687500 5.06217944062500 7.26736761875000 
