16

 C -2.88947932500000 1.38219004687500 5.77067538750000 
 C -3.14489832500000 5.08035104687500 5.47317838750000 
 C -4.12730332500000 0.779677046874999 5.19632738750000 
 C -4.42640632500000 4.64379304687500 4.90414538750000 
 N -1.83006032500000 1.34778304687500 4.98705938750000 
 N -2.13980032500000 5.01909604687500 4.60932338750000 
 N -4.01763532500000 0.453111046874999 3.90078038750000 
 N -4.34809132500000 4.32686504687500 3.63120338750000 
 N -4.62655332500000 1.53467804687500 7.59424938750000 
 N -4.78258432500000 4.97944304687500 7.35851838750000 
 S -5.38979532500000 0.871254046874999 6.27262238750000 
 S -5.68776332500000 4.59425904687500 6.03193538750000 
 S -2.41173232500000 0.665350046875000 3.57956938750000 
 S -2.75044732500000 4.45520804687500 3.17834438750000 
 S -2.99426732500000 1.90739404687500 7.34507938750000 
 S -3.13749832500000 5.25512504687500 7.24416138750000 
