16

 C -3.14983508125000 1.27194738750000 5.76505135000000 
 C -3.07241308125000 4.67836038750000 5.42253835000000 
 C -4.32918608125000 0.727410387500000 5.06203835000000 
 C -4.42369808125000 4.62164638750000 4.94701535000000 
 N -2.18639408125000 1.62349738750000 4.95479035000000 
 N -2.10599608125000 4.84853838750000 4.50223435000000 
 N -4.27070308125000 0.749594387500000 3.74357035000000 
 N -4.43319408125000 4.51597638750000 3.63175235000000 
 N -4.82211608125000 0.735716387500001 7.65393135000000 
 N -4.65414708125000 4.68368238750000 7.49701635000000 
 S -5.52922208125000 0.127856387500001 6.24743535000000 
 S -5.62431208125000 4.28659338750000 6.17747635000000 
 S -2.75720608125000 1.31425738750000 3.40417135000000 
 S -2.88076108125000 4.67339238750000 3.03325235000000 
 S -3.19931108125000 1.04217238750000 7.58466435000000 
 S -3.02616908125000 4.81623638750000 7.15778935000000 
