16

 C -3.28906877187500 1.47204611562500 5.27669095625000 
 C -3.09388077187500 5.06313811562500 5.43734695625000 
 C -4.39702377187500 0.867341115624999 4.61270895625000 
 C -4.29637077187500 4.55057611562500 4.83106295625000 
 N -2.20494777187500 1.52720411562500 4.52117095625000 
 N -1.97377277187500 4.94729811562500 4.70438395625000 
 N -4.21226577187500 0.625298115625000 3.33197795625000 
 N -4.06027977187500 4.09510311562500 3.61215395625000 
 N -5.07664977187500 1.02639411562500 7.07760495625000 
 N -4.87939377187500 4.91873711562500 7.30870495625000 
 S -5.73504977187500 0.487781115625000 5.64249495625000 
 S -5.63996177187500 4.47697411562500 5.88850995625000 
 S -2.60217777187500 0.899328115624999 3.02825895625000 
 S -2.47491077187500 4.25303911562500 3.27053795625000 
 S -3.58557777187500 1.69512111562500 6.98297995625000 
 S -3.33217777187500 5.46751311562500 7.08145695625000 
