16

 C -2.88795221250000 1.57508172812500 5.81916324687500 
 C -3.31702921250000 5.35001872812500 5.53187124687500 
 C -4.17609121250000 1.42181972812500 5.16237124687500 
 C -4.54820721250000 4.90067872812500 4.89665424687500 
 N -1.86628621250000 1.69091872812500 4.99217524687500 
 N -2.35631321250000 5.64650972812500 4.63999624687500 
 N -4.04827521250000 1.33876172812500 3.84426324687500 
 N -4.56599421250000 4.82033072812500 3.57938824687500 
 N -4.60738321250000 1.46340472812500 7.70688424687500 
 N -5.07649221250000 5.05742572812500 7.41331724687500 
 S -5.46193121250000 1.42596972812500 6.27489824687500 
 S -5.82771321250000 4.66022172812500 6.00079524687500 
 S -2.48605121250000 1.57205572812500 3.40883724687500 
 S -3.06153221250000 5.24155172812500 3.12689724687500 
 S -2.89834021250000 1.57214072812500 7.52904324687500 
 S -3.46393321250000 5.54812972812500 7.24623824687500 
