16

 C -3.15508850937500 1.37811930625000 5.42014171875000 
 C -3.31595550937500 4.99186430625000 5.46740771875000 
 C -4.41038150937500 0.962116306250002 4.79906771875000 
 C -4.52203250937500 4.53403430625000 4.80784071875000 
 N -2.22636750937500 1.64277630625000 4.54009071875000 
 N -2.35564650937500 5.33886930625000 4.63377771875000 
 N -4.32541950937500 0.813605306250002 3.51328071875000 
 N -4.41503150937500 4.35688330625000 3.49462871875000 
 N -4.89077850937500 1.19355930625000 7.31148271875000 
 N -5.00929450937500 4.61756930625000 7.37097771875000 
 S -5.68795850937500 0.742737306250002 5.92527271875000 
 S -5.72852650937500 4.05742430625000 5.95084571875000 
 S -2.78565050937500 1.27894030625000 3.02835371875000 
 S -2.92796150937500 4.97307930625000 3.11227171875000 
 S -3.29724550937500 1.57982830625000 7.07786071875000 
 S -3.41955750937500 5.06278030625000 7.19482371875000 
