16

 C -2.91026099375000 1.42814891250000 5.73395545625000 
 C -3.17517199375000 4.70736791250000 5.60982945625000 
 C -4.17920899375000 1.19968991250000 5.09569445625000 
 C -4.43874299375000 4.59032591250000 4.95461545625000 
 N -1.83727499375000 1.46884891250000 4.94371845625000 
 N -2.08596299375000 4.70754491250000 4.80302445625000 
 N -4.09996999375000 1.05478991250000 3.77321845625000 
 N -4.38151299375000 4.65549091250000 3.62386745625000 
 N -4.70791399375000 1.49665991250000 7.64253045625000 
 N -4.99254799375000 4.64490491250000 7.47860145625000 
 S -5.53597599375000 1.25015591250000 6.25493545625000 
 S -5.79568799375000 4.42751191250000 6.05612645625000 
 S -2.51059499375000 1.28517491250000 3.39229545625000 
 S -2.74096699375000 4.72426491250000 3.27936845625000 
 S -3.03365999375000 1.63344291250000 7.53742645625000 
 S -3.38928799375000 4.96769591250000 7.33523045625000 
