16

 C -3.27228229687500 1.36377820625000 5.53284237812500 
 C -3.28151529687500 5.04517720625000 5.44874237812500 
 C -4.56258529687500 1.06521920625000 4.89416637812500 
 C -4.53467729687500 4.67224620625000 4.82934037812500 
 N -2.21730629687500 1.53271120625000 4.68544537812500 
 N -2.27024529687500 5.30593720625000 4.62114837812500 
 N -4.46540229687500 0.903884206249999 3.54789437812500 
 N -4.41466529687500 4.50814620625000 3.52605837812500 
 N -5.00930129687500 1.12027420625000 7.50387437812500 
 N -4.96448529687500 4.79604620625000 7.35587837812500 
 S -5.83074529687500 0.769794206249998 6.09699037812500 
 S -5.75804329687500 4.43695220625000 5.93441337812500 
 S -2.87145729687500 1.16358520625000 3.18658637812500 
 S -2.86690429687500 4.93000220625000 3.09992537812500 
 S -3.39019329687500 1.45332920625000 7.26999237812500 
 S -3.33692929687500 5.14088020625000 7.20915337812500 
