16

 C -3.10571697500000 1.27590750312500 5.45171625000000 
 C -2.86733797500000 5.19969250312500 5.87937825000000 
 C -4.34680197500000 0.874571503124999 4.75264025000000 
 C -4.02114997500000 4.74890250312500 5.15264125000000 
 N -2.16538597500000 1.73201250312500 4.65270225000000 
 N -1.82298797500000 5.33947350312500 5.06743525000000 
 N -4.24683397500000 0.968000503124999 3.44705025000000 
 N -3.92599297500000 4.66157350312500 3.83113825000000 
 N -4.89139497500000 0.782065503124999 7.29054625000000 
 N -4.78305697500000 5.01908850312500 7.63248725000000 
 S -5.63009197500000 0.545884503124999 5.85607025000000 
 S -5.37206997500000 4.41738650312500 6.16250725000000 
 S -2.68473397500000 1.48237550312500 3.04644025000000 
 S -2.32208597500000 4.99697750312500 3.49111625000000 
 S -3.28670197500000 1.21518650312500 7.19060425000000 
 S -3.12891897500000 5.43027850312500 7.59899025000000 
