16

 C -3.08220398124999 1.25432357187500 5.62816719375000 
 C -3.13002498124999 5.02728857187500 5.48830819375000 
 C -4.25915298124999 0.789836571874998 5.06510619375000 
 C -4.27175998124999 4.42987057187500 4.91281419375000 
 N -2.05270698124999 1.29000857187500 4.82047719375000 
 N -2.02828898124999 5.09926657187500 4.74360319375000 
 N -4.15278398124999 0.429702571874998 3.81038519375000 
 N -4.01374098124999 4.04602157187500 3.65084519375000 
 N -4.80398498124999 1.11052457187500 7.48978919375000 
 N -4.86916298124999 4.89300957187500 7.37009919375000 
 S -5.59250398124999 0.697343571874998 6.11123819375000 
 S -5.59424798124999 4.28433057187500 6.03154519375000 
 S -2.56550898124999 0.722328571874998 3.37426919375000 
 S -2.46511198124999 4.46562957187500 3.27841519375000 
 S -3.21293498124999 1.64351357187500 7.35541019375000 
 S -3.31025198125000 5.35664957187500 7.15971119375000 
