16

 C -3.04961030625000 1.28273521875000 5.77778387500000 
 C -3.20880030625000 5.07889021875000 5.56302387500000 
 C -4.36208130625000 0.882738218750001 5.16878187500000 
 C -4.45082230625000 4.58902921875000 4.96363887500000 
 N -2.01342030625000 1.14317621875000 4.94181487500000 
 N -2.18100930625000 5.13529421875000 4.70619087500000 
 N -4.28386830625000 0.579489218750001 3.87813287500000 
 N -4.39730330625000 4.54988921875000 3.62531687500000 
 N -4.72059830625000 1.47721121875000 7.65101087500000 
 N -4.80954730625000 4.98942521875000 7.45072387500000 
 S -5.60919330625000 1.04607721875000 6.29737787500000 
 S -5.72598330625000 4.51715121875000 6.14865587500000 
 S -2.67803830625000 0.665636218750001 3.50091487500000 
 S -2.80530930625000 4.77908421875000 3.19516487500000 
 S -3.12693030625000 1.80631121875000 7.40770687500000 
 S -3.20827930625000 5.40275721875000 7.24020387500000 
