16

 C -2.88328572500000 1.90158443125001 5.43621907187500 
 C -3.11979472500000 5.18302943125000 5.49315207187500 
 C -4.09847672500000 1.50937443125000 4.81275607187500 
 C -4.30403972500000 4.87508243125000 4.73869807187500 
 N -1.88491572500000 1.92979343125001 4.57795407187500 
 N -1.98661572500000 5.21160843125001 4.77529207187500 
 N -3.99941672500000 1.21239343125001 3.53849907187500 
 N -4.10874272500000 4.75113243125001 3.44312907187500 
 N -4.59342172500000 1.74565443125001 7.24367807187500 
 N -4.90899572500000 4.88246343125001 7.25413107187500 
 S -5.40028072500000 1.40615943125000 5.86470807187500 
 S -5.69725472500000 4.58907643125000 5.79834407187500 
 S -2.45170772500000 1.57037643125001 3.04764307187500 
 S -2.48638772500000 4.87486843125000 3.16071107187500 
 S -3.01352972500000 2.23904543125000 7.10038007187500 
 S -3.30200472500000 5.30514843125000 7.22743407187500 
