16

 C -3.39518788750000 1.26248627500000 5.46503215312500 
 C -3.23052588750000 5.36197327500000 5.81526015312500 
 C -4.57794888750000 0.728193275000000 4.84185515312500 
 C -4.34353488750000 4.71819827500000 5.15255615312500 
 N -2.31221088750000 1.55001827500000 4.69319315312500 
 N -2.19631388750000 5.66975527500000 4.98876615312500 
 N -4.37829288750000 0.708640275000000 3.49966515312500 
 N -4.23493188750000 4.77518927500000 3.82536215312500 
 N -5.13332788750000 0.856329275000000 7.35077715312500 
 N -4.85543088750000 4.61420927500000 7.68816015312500 
 S -5.91410388750000 0.391876275000000 5.95956815312500 
 S -5.68941088750000 4.36823827500000 6.25797815312500 
 S -2.85261588750000 1.18496627500000 3.10762115312500 
 S -2.78966488750000 5.41234827500000 3.45311915312500 
 S -3.49900688750000 1.19850027500000 7.17852715312500 
 S -3.36227888750000 5.27387627500000 7.51824815312500 
