16

 C -3.20222727500000 1.30196229062500 5.59195042812500 
 C -3.16792027500000 4.88208729062500 5.64368442812500 
 C -4.43317827500000 0.807176290624999 5.12570342812500 
 C -4.39422327500000 4.45879529062500 5.00737842812500 
 N -2.18730427500000 1.34669229062500 4.70839142812500 
 N -2.11603227500000 5.04927129062500 4.80794842812500 
 N -4.40340327500000 0.437524290624999 3.86561542812500 
 N -4.26094227500000 4.18757929062500 3.68292542812500 
 N -4.75849727500000 1.22949029062500 7.57917342812500 
 N -4.92506927500000 4.90166029062500 7.54125742812500 
 S -5.75344427500000 0.858797290624999 6.26820342812500 
 S -5.70923027500000 4.29746729062500 6.15886042812500 
 S -2.82717427500000 0.741908290624998 3.35443942812500 
 S -2.62712227500000 4.45972029062500 3.33631842812500 
 S -3.26742627500000 1.67698829062500 7.21933642812500 
 S -3.22497627500000 5.16527429062500 7.34504242812500 
