16

 C -3.06191713125000 1.45322225312500 5.54090515312500 
 C -3.25603013125000 5.04824725312500 5.41588915312500 
 C -4.23655413125000 0.843945253124999 4.79967315312500 
 C -4.47923413125000 4.48335225312500 4.86397015312500 
 N -1.98784413125000 1.60850625312500 4.76529515312500 
 N -2.24868713125000 5.13995325312500 4.56892315312500 
 N -4.03025313125000 0.598024253124999 3.50508015312500 
 N -4.45060913125000 4.31640725312500 3.55345015312500 
 N -4.97864113125000 1.37295325312500 7.18628915312500 
 N -4.90455913125000 5.24896825312500 7.28755015312500 
 S -5.66269613125000 0.849113253124999 5.72559815312500 
 S -5.75998013125000 4.51433625312500 6.07912115312500 
 S -2.43968013125000 1.05246025312500 3.23355615312500 
 S -2.85429413125000 4.63230525312500 3.09331715312500 
 S -3.36077413125000 1.89150325312500 7.13437515312500 
 S -3.31385913125000 5.59392825312500 7.03253915312500 
