16

 C -2.81982481875000 1.17294309062500 5.48010377500000 
 C -2.99370781875000 5.12691309062500 5.68571477500000 
 C -4.05974381875000 0.848979090625001 4.83737877500000 
 C -4.15293681875000 4.59510309062500 5.00456277500000 
 N -1.78999481875000 1.34859009062500 4.62540977500000 
 N -1.97470281875000 5.44000609062500 4.88517877500000 
 N -4.01145181875000 0.910726090625000 3.49655177500000 
 N -3.99656181875000 4.47828409062500 3.70361877500000 
 N -4.54641081875000 1.27322509062500 7.31457977500000 
 N -4.82359681875000 4.86575209062500 7.45452077500000 
 S -5.41913281875000 0.895890090625000 5.90797777500000 
 S -5.50232481875000 4.23698409062500 6.08194377500000 
 S -2.46944881875000 1.21040309062500 3.13034377500000 
 S -2.46809181875000 4.94225509062500 3.37880177500000 
 S -2.90498481875000 1.54102309062500 7.13127677500000 
 S -3.23464381875000 5.40124809062500 7.31146977500000 
