16

 C -3.17684179375000 1.26548925625000 5.69702628437500 
 C -3.01272379375000 4.69325325625000 5.42984028437500 
 C -4.38580779375000 0.839143256250001 5.12289428437500 
 C -4.20877279375000 4.21642625625000 4.79811928437500 
 N -2.09591679375000 1.24176425625000 4.90681528437500 
 N -1.91248079375000 4.71915825625000 4.65440528437500 
 N -4.31612179375000 0.634284256250001 3.81184828437500 
 N -4.12681079375000 4.02367525625000 3.49487628437500 
 N -4.80837379375000 1.08382325625000 7.66811428437500 
 N -4.93188179375000 4.79148125625000 7.23520328437500 
 S -5.65191279375000 0.772273256250001 6.25031828437500 
 S -5.55974779375000 4.03088325625000 5.93346628437500 
 S -2.75444379375000 0.893325256250001 3.36964228437500 
 S -2.51405979375000 4.31439525625000 3.09909228437500 
 S -3.24295679375000 1.60769325625000 7.40845128437500 
 S -3.35208779375000 5.14797425625000 7.09814728437500 
