16

 C -3.22394333125000 1.12760788437500 5.21653225312500 
 C -3.13083533125000 5.06473288437500 5.63880925312500 
 C -4.49049533125000 0.868163884375001 4.63367225312500 
 C -4.41266533125000 4.65695688437500 5.06363025312500 
 N -2.20241633125000 1.10280488437500 4.39725125312500 
 N -2.18749033125000 5.26065888437500 4.66873625312500 
 N -4.45662633125000 0.646052884375001 3.32812225312500 
 N -4.48434033125000 4.58237888437500 3.73733625312500 
 N -4.82270733125000 1.62754388437500 7.20315625312500 
 N -4.90654933125000 4.89286188437500 7.51430925312500 
 S -5.69172933125000 0.917384884375002 5.95194625312500 
 S -5.69046533125000 4.45264388437500 6.16900825312500 
 S -2.84627833125000 0.881176884375002 2.91361525312500 
 S -3.03403033125000 4.97434388437500 3.17005025312500 
 S -3.18079133125000 1.70222688437500 6.78539225312500 
 S -3.29812433125000 5.23022588437500 7.41328725312500 
