16

 C -3.16255910312500 1.43340501875000 5.24894279375000 
 C -3.05513610312500 5.21626901875000 5.56193079375000 
 C -4.33875910312500 0.916604018750001 4.60283879375000 
 C -4.30186810312500 4.79450001875000 5.04450479375000 
 N -2.17324010312500 1.78846701875000 4.42808879375000 
 N -2.05789610312500 5.23012801875000 4.67784379375000 
 N -4.31956010312500 0.997774018750001 3.27102579375000 
 N -4.31729710312500 4.55623801875000 3.74164279375000 
 N -4.71563610312500 0.524701018750001 7.19416379375000 
 N -4.63241010312500 5.04252101875000 7.56680779375000 
 S -5.47783510312500 0.268730018750001 5.75749979375000 
 S -5.49887510312500 4.44169201875000 6.26138879375000 
 S -2.75293410312500 1.59542601875000 2.90059279375000 
 S -2.71934910312500 4.88061901875000 3.22957779375000 
 S -3.24363110312500 1.27483301875000 7.02699079375000 
 S -3.05083210312500 5.57359701875000 7.21966379375000 
