16

 C -2.91709049375000 1.48262234687500 5.28345093437500 
 C -3.09789449375000 5.05787134687500 5.46794393437500 
 C -4.17025949375000 1.12832134687500 4.71925993437500 
 C -4.29477949375000 4.58474534687500 4.79880993437500 
 N -1.91008849375000 1.59800434687500 4.41406693437500 
 N -2.09981849375000 5.32267134687500 4.63322293437500 
 N -4.10898149375000 0.903245346875000 3.40246793437500 
 N -4.17242149375000 4.40421434687500 3.48963593437500 
 N -4.69823149375000 1.18900734687500 7.22902593437500 
 N -4.90221849375000 4.71788534687500 7.33944993437500 
 S -5.51075749375000 1.01626434687500 5.79988793437500 
 S -5.54773149375000 4.16628434687500 5.88109693437500 
 S -2.55227949375000 1.33547634687500 2.89545093437500 
 S -2.61872149375000 4.91589634687500 3.09511093437500 
 S -3.11091649375000 1.62215734687500 7.08162793437500 
 S -3.29856449375000 5.27684134687500 7.25733693437500 
