16

 C -3.16231559062500 1.27228223750000 5.61449376562500 
 C -3.13287159062500 4.97462723750000 5.55746776562500 
 C -4.43573159062500 0.747157237499998 5.11927576562500 
 C -4.35015059062500 4.39944523750000 5.01447076562500 
 N -2.17618959062500 1.35075723750000 4.76300376562500 
 N -2.06526359062500 4.93740823750000 4.78233176562500 
 N -4.38225259062500 0.491572237499997 3.80349376562500 
 N -4.21050059062500 4.23211223750000 3.72370076562500 
 N -4.83603159062500 1.23111523750000 7.62978976562500 
 N -4.88452959062500 4.90332023750000 7.52226676562500 
 S -5.69768959062500 0.865595237499997 6.29193776562500 
 S -5.73036559062500 4.31746523750000 6.16845376562500 
 S -2.83073659062500 0.727942237499998 3.33700476562500 
 S -2.59125959062500 4.41607623750000 3.27889476562500 
 S -3.24247159062500 1.66716823750000 7.26057376562500 
 S -3.23337459062500 5.15485323750000 7.31045176562500 
