16

 C -3.12821312500000 1.42136109375000 5.44770427500000 
 C -3.35542612500000 5.30434809375000 5.18815327500000 
 C -4.25246412500000 0.748413093750000 4.93419327500000 
 C -4.33605312500000 4.38630809375000 4.68506727500000 
 N -2.18659012500000 1.66144809375000 4.56186327500000 
 N -2.38503412500000 5.62689309375000 4.31501127500000 
 N -4.17829612500000 0.527466093750000 3.65421327500000 
 N -4.10053112500000 4.02566209375000 3.42414627500000 
 N -4.79287512500000 1.26964909375000 7.40601427500000 
 N -5.20680412500000 4.93508009375000 7.00007827500000 
 S -5.54156712500000 0.630925093750000 6.06139827500000 
 S -5.72691212500000 4.10696409375000 5.63096427500000 
 S -2.65305712500000 1.06845609375000 3.10590427500000 
 S -2.72054512500000 4.72632609375000 2.93888827500000 
 S -3.21929212500000 1.74566209375000 7.11708027500000 
 S -3.71410112500000 5.68860509375000 6.88173427500000 
