16

 C -3.17072297500000 1.12743614375000 5.48352865625000 
 C -2.86185097500000 5.22999414375000 5.52311865625000 
 C -4.50951797500000 0.740160143750000 4.99917265625000 
 C -4.05806597500000 4.89960314375000 4.74866565625000 
 N -2.25737097500000 1.35462014375000 4.54486065625000 
 N -1.79590297500000 5.21221014375000 4.73876365625000 
 N -4.58567997500000 0.542987143750000 3.69216965625000 
 N -3.91746797500000 4.86746914375000 3.42070465625000 
 N -4.84552197500000 1.22066114375000 7.55454765625000 
 N -4.79415997500000 4.96431614375000 7.14595665625000 
 S -5.73904397500000 0.679707143750000 6.25701465625000 
 S -5.51174197500000 4.61888714375000 5.67111865625000 
 S -3.09225697500000 0.900715143750000 3.13653265625000 
 S -2.30478397500000 5.11044114375000 3.12035865625000 
 S -3.20025497500000 1.27797414375000 7.23397465625000 
 S -3.10505297500000 5.07865014375000 7.21605965625000 
