16

 C -3.28669761250000 0.982526250000000 5.47508190625000 
 C -3.29161161250000 5.10763725000000 5.73182490625000 
 C -4.52329661250000 0.730630250000000 4.78741790625000 
 C -4.42217461250000 4.48238625000000 5.09634190625000 
 N -2.21479261250000 1.18626225000000 4.72713690625000 
 N -2.26585061250000 5.29198025000000 4.88883690625000 
 N -4.39010761250000 0.723626250000000 3.47018890625000 
 N -4.30745061250000 4.36508225000000 3.77535090625000 
 N -5.05017261250000 0.606512250000000 7.29503390625000 
 N -4.94691261250000 4.59742725000000 7.64351590625000 
 S -5.83746061250000 0.390137250000000 5.81346790625000 
 S -5.66591761250000 4.21022325000000 6.18338890625000 
 S -2.80203261250000 1.15708425000000 3.17251290625000 
 S -2.77685561250000 4.85770625000000 3.38445890625000 
 S -3.40936561250000 0.857452250000000 7.20364490625000 
 S -3.35586861250000 5.21090325000000 7.46642290625000 
