16

 C -3.20082175937500 1.33076170937500 5.25938479687500 
 C -2.93353575937500 5.30159570937500 5.37848979687500 
 C -4.48897375937500 0.907915709375003 4.68493279687500 
 C -4.10318775937500 4.83817570937500 4.66672179687500 
 N -2.13088975937500 1.22593170937500 4.46586179687500 
 N -1.86985675937500 5.39353070937500 4.59176479687500 
 N -4.39035775937500 0.586016709375003 3.39764879687500 
 N -3.93868575937500 4.55138870937500 3.36599679687500 
 N -4.95070675937500 1.41743270937500 7.24926479687500 
 N -4.70510675937500 4.89337470937500 7.24641279687500 
 S -5.80479975937500 0.917599709375003 5.93673879687500 
 S -5.43885275937500 4.41811470937500 5.81272579687500 
 S -2.77155975937500 0.643801709375003 3.03045279687500 
 S -2.30996775937500 4.91275370937500 3.05421279687500 
 S -3.29633375937500 1.55398370937500 6.98975779687500 
 S -3.10634175937500 5.50124470937500 7.10575579687500 
