16

 C -3.22309080000000 1.12366620312500 5.60286223750000 
 C -3.10090680000000 5.12192920312500 5.55494223750000 
 C -4.42143880000000 0.656774203125001 4.95728923750000 
 C -4.32098680000000 4.69826320312500 4.90157323750000 
 N -2.18637080000000 1.35731720312500 4.80445723750000 
 N -2.09267080000000 5.32321220312500 4.71675823750000 
 N -4.36207180000000 0.670218203125001 3.59152123750000 
 N -4.21116980000000 4.55793020312500 3.55883723750000 
 N -4.99695980000000 1.08338920312500 7.46805723750000 
 N -4.71342980000000 4.63850720312500 7.46548523750000 
 S -5.74939880000000 0.421748203125000 6.11904523750000 
 S -5.52487680000000 4.31354920312500 6.08514823750000 
 S -2.73844280000000 0.996446203125000 3.27694923750000 
 S -2.60171180000000 4.95735820312500 3.24179023750000 
 S -3.41288580000000 1.46577520312500 7.36124423750000 
 S -3.19376780000000 5.20284620312500 7.31034723750000 
