16

 C -3.28651615625000 1.04642533437500 5.67616440937500 
 C -2.97053615625000 5.06497833437500 5.46270840937500 
 C -4.43000715625000 0.535874334375001 4.95295840937500 
 C -4.08775415625000 4.44314933437500 4.81115540937500 
 N -2.17153915625000 1.20362133437500 4.92241240937500 
 N -1.89234015625000 5.31221433437500 4.70668040937500 
 N -4.13711815625000 0.382142334375001 3.66408740937500 
 N -3.88348315625000 4.27772333437500 3.50613340937500 
 N -5.18425815625000 0.771252334375001 7.40066940937500 
 N -4.70827515625000 4.76826033437500 7.31022640937500 
 S -5.82025715625000 0.348493334375001 5.97389940937500 
 S -5.51699315625000 4.33075133437500 5.89773440937500 
 S -2.62669415625000 0.947667334375001 3.34518240937500 
 S -2.36123615625000 4.86874733437500 3.15533340937500 
 S -3.55417515625000 0.979399334375000 7.34338040937500 
 S -3.08776615625000 5.16616333437500 7.17943540937500 
