16

 C -3.28017674687500 1.29624500625000 5.27428810937500 
 C -3.12480574687500 5.30947100625000 5.51288510937500 
 C -4.54817274687500 0.786364006250001 4.74090810937500 
 C -4.37450674687500 5.07667600625000 4.78352510937500 
 N -2.33758774687500 1.43390400625000 4.34552410937500 
 N -2.03184474687500 5.44558100625000 4.76785410937500 
 N -4.52656674687500 0.607813006250001 3.40177710937500 
 N -4.21005974687500 5.19393000625000 3.48106910937500 
 N -4.97326274687500 1.08156400625000 7.26850310937500 
 N -5.07456574687500 4.95436400625000 7.14140510937500 
 S -5.79538974687500 0.502481006250001 5.90252910937500 
 S -5.81397474687500 5.01514000625000 5.72778210937500 
 S -3.00824274687500 0.940130006250000 2.93968810937500 
 S -2.62597474687500 5.43536400625000 3.19053710937500 
 S -3.45464474687500 1.58108800625000 6.96660010937500 
 S -3.44470974687500 5.14048900625000 7.20740810937500 
