16

 C -3.19015570625000 1.41787970000000 5.69498738750000 
 C -2.87413570625000 5.23089870000000 5.45939038750000 
 C -4.41132370625000 1.14394970000000 5.03952538750000 
 C -4.14487870625000 4.85198370000000 4.81824438750000 
 N -2.15438570625000 1.58389770000000 4.86074438750000 
 N -1.88760670625000 5.35105270000000 4.62413338750000 
 N -4.33390470625000 1.15887670000000 3.71102438750000 
 N -4.09003970625000 4.76094670000000 3.52482538750000 
 N -4.91347570625000 1.56151670000000 7.55641138750000 
 N -4.72173470625000 5.11793070000000 7.28681538750000 
 S -5.69849570625000 0.898054700000002 6.18958338750000 
 S -5.38107070625000 4.57507670000000 5.90398838750000 
 S -2.71749370625000 1.43868270000000 3.28557438750000 
 S -2.57372570625000 5.12463070000000 3.05907838750000 
 S -3.25364670625000 1.82747070000000 7.34098538750000 
 S -3.06705570625000 5.34197870000000 7.19017638750000 
