16

 C -3.07970186562500 1.52896131875000 5.34170398125000 
 C -3.08929886562500 5.20312431875000 5.71725098125000 
 C -4.33495186562500 1.05304631875000 4.75759498125000 
 C -4.26436586562500 4.77475331875000 5.08954198125000 
 N -2.00785286562500 1.42675531875000 4.58160198125000 
 N -2.07088186562500 5.39000331875000 4.85538698125000 
 N -4.17699086562500 0.563012318750001 3.56901998125000 
 N -4.19696986562500 4.55679031875000 3.80882798125000 
 N -4.73115586562500 1.38305831875000 7.25058298125000 
 N -4.88190186562500 4.78950731875000 7.60368698125000 
 S -5.62569986562500 1.13599231875000 5.91576998125000 
 S -5.60822386562500 4.76008131875000 6.13522498125000 
 S -2.52993286562500 0.752493318750001 3.11997598125000 
 S -2.62274386562500 4.94505931875000 3.33235198125000 
 S -3.16752886562500 1.62206731875000 7.06497198125000 
 S -3.27206086562500 5.35387231875000 7.38058898125000 
