16

 C -3.19621282812500 1.31363977500000 5.55966505625000 
 C -3.17024782812500 4.84953677500000 5.67491805625000 
 C -4.46465582812500 0.847714775000000 5.09460105625000 
 C -4.38834682812500 4.49492277500000 4.99099905625000 
 N -2.19883882812500 1.34380777500000 4.69715205625000 
 N -2.16237482812500 5.08303977500000 4.82254005625000 
 N -4.39485082812500 0.399221775000000 3.85664005625000 
 N -4.27641882812500 4.15214977500000 3.69670805625000 
 N -4.77500382812500 1.22350077500000 7.55776305625000 
 N -4.91856782812500 4.88864277500000 7.52329005625000 
 S -5.77135682812500 0.853813775000000 6.25387705625000 
 S -5.67348682812500 4.29495277500000 6.15382205625000 
 S -2.83799782812500 0.754620774999999 3.34395505625000 
 S -2.66185682812500 4.49628677500000 3.37251005625000 
 S -3.25236082812500 1.70097777500000 7.23861405625000 
 S -3.24699582812500 5.17256877500000 7.35964105625000 
