16

 C -2.98533316250000 1.73060045312500 5.67165264687500 
 C -3.12615416250000 5.47053245312500 5.66795864687500 
 C -4.07362816250000 0.967805453124998 5.09762364687500 
 C -4.30821616250000 4.92158345312500 5.03835164687500 
 N -1.98943116250000 1.94316745312500 4.81825164687500 
 N -2.11831116250000 5.53251945312500 4.81379864687500 
 N -3.91406516250000 0.576758453124999 3.82987364687500 
 N -4.17591816250000 4.55860545312500 3.74772264687500 
 N -4.76935616250000 1.36197545312500 7.44950664687500 
 N -4.89453516250000 5.30018145312500 7.58673464687500 
 S -5.44296716250000 0.784440453124999 6.06684864687500 
 S -5.66617616250000 4.92155345312500 6.11026464687500 
 S -2.43198216250000 1.11622145312500 3.49471264687500 
 S -2.65323016250000 4.95343845312500 3.33960264687500 
 S -3.24954116250000 2.10457945312500 7.36439164687500 
 S -3.24449916250000 5.60536845312500 7.43838764687500 
