16

 C -2.97297094687500 1.34366896875000 5.43991572812500 
 C -3.36101494687500 5.37318896875000 5.25941572812500 
 C -4.17630794687500 0.944073968750000 4.73936572812500 
 C -4.40510594687500 4.47803196875000 4.76848072812500 
 N -1.96587094687500 1.56606496875000 4.62075272812500 
 N -2.27784394687500 5.44453396875000 4.47376372812500 
 N -4.02522094687500 0.805579968750000 3.39518472812500 
 N -4.12237894687500 4.01315096875000 3.56579772812500 
 N -4.70001794687500 1.17965296875000 7.32631472812500 
 N -5.20996694687500 5.22531396875000 7.07492072812500 
 S -5.46465494687500 0.985254968750000 5.88432672812500 
 S -5.81378094687500 4.33697696875000 5.81319672812500 
 S -2.35303294687500 1.12966996875000 3.04474472812500 
 S -2.68949394687500 4.53177596875000 3.09324972812500 
 S -3.11113694687500 1.57344296875000 7.09123772812500 
 S -3.68909894687500 5.94498996875000 6.85479672812500 
