16

 C -3.02284901250000 0.948668968749998 5.49715907812500 
 C -3.00377701250000 5.04018696875000 5.54744107812500 
 C -4.18859101250000 0.589887968749998 4.74683507812500 
 C -4.29729301250000 4.80768596875000 4.93387407812500 
 N -1.93538001250000 1.10607396875000 4.74217207812500 
 N -1.99694201250000 4.93954696875000 4.67645207812500 
 N -4.07212101250000 0.478973968749998 3.39872407812500 
 N -4.28099901250000 4.57909296875000 3.62535007812500 
 N -5.00961401250000 1.05435396875000 7.16707207812500 
 N -4.86213801250000 5.11230796875000 7.39322607812500 
 S -5.63577101250000 0.454979968749998 5.74993107812500 
 S -5.63304201250000 4.84723596875000 5.92623907812500 
 S -2.40182901250000 0.771402968749999 3.18723907812500 
 S -2.66136901250000 4.68400396875000 3.20048707812500 
 S -3.39027301250000 1.34096696875000 7.18117007812500 
 S -3.23351501250000 5.32844696875000 7.23964307812500 
