16

 C -3.11203701562500 1.51607602500000 5.64226106875000 
 C -3.16603801562500 4.87248502500000 5.47371006875000 
 C -4.40877401562500 1.32821102500000 5.10327406875000 
 C -4.44844501562500 4.66901502500000 4.82476806875000 
 N -2.16102301562500 1.64353602500000 4.73900006875000 
 N -2.12151501562500 5.02268702500000 4.65024106875000 
 N -4.46951101562500 1.18256102500000 3.80693506875000 
 N -4.33058601562500 4.63781602500000 3.50405306875000 
 N -4.76952301562500 1.65471002500000 7.61154606875000 
 N -4.99635301562500 4.80695502500000 7.30236006875000 
 S -5.67055701562500 1.27706302500000 6.21991606875000 
 S -5.81742001562500 4.56857702500000 5.90518606875000 
 S -2.92501401562500 1.46273902500000 3.24079506875000 
 S -2.77202001562500 4.87824302500000 3.09259306875000 
 S -3.13296701562500 1.78598802500000 7.34027306875000 
 S -3.36021501562500 5.02031802500000 7.23345006875000 
