16

 C -2.86946625937500 2.00702481250000 5.37886082500000 
 C -3.01837525937500 5.12938981250000 5.47110082500000 
 C -4.06841825937500 1.42128881250000 4.76467182500000 
 C -4.22776325937500 4.93602581250000 4.74000382500000 
 N -1.83956925937500 2.24365481250000 4.54680782500000 
 N -1.94358925937500 5.15429081250000 4.65652582500000 
 N -3.96224525937500 1.20412081250000 3.43654082500000 
 N -4.15197725937500 4.89925081250000 3.43050382500000 
 N -4.61195625937500 1.81636281250000 7.34131882500000 
 N -4.96305825937500 4.92885681250000 7.22859982500000 
 S -5.45006925937500 1.44786681250000 5.92666482500000 
 S -5.59743125937500 4.54772181250000 5.73124682500000 
 S -2.41643225937500 1.69275781250000 3.07722082500000 
 S -2.51045625937500 5.00343481250000 3.12259582500000 
 S -3.01460025937500 2.29436181250000 7.09864982500000 
 S -3.37116425937500 5.31491381250000 7.17836282500000 
