16

 C -3.22657409687500 0.863360965624996 5.48385368125000 
 C -3.32629009687500 5.10471896562500 5.47745468125000 
 C -4.48947009687500 0.585304965624996 4.74315668125000 
 C -4.49481509687500 4.61822896562500 4.81516468125000 
 N -2.22119609687500 1.09777596562500 4.65701568125000 
 N -2.30203409687500 5.38779496562500 4.70662568125000 
 N -4.45498309687500 0.577476965624996 3.40950568125000 
 N -4.36006109687500 4.55079296562500 3.48666268125000 
 N -5.14093109687500 0.713419965624996 7.26682368125000 
 N -4.98756509687500 4.46389096562500 7.36387968125000 
 S -5.87965709687500 0.572086965624996 5.75885668125000 
 S -5.76911809687500 4.17887396562500 5.89779368125000 
 S -2.82646409687500 0.963965965624996 3.13727268125000 
 S -2.73365709687500 5.03453996562500 3.19101668125000 
 S -3.45911709687500 0.854859965624996 7.21344868125000 
 S -3.53601409687500 5.25796496562500 7.21124968125000 
