16

 C -3.10601483750000 1.53519451875000 5.60903977500000 
 C -3.10130683750000 4.89301151875000 5.53069277500000 
 C -4.42934283750000 1.27705751875000 5.08987277500000 
 C -4.37480783750000 4.62347251875000 4.89496077500000 
 N -2.20120083750000 1.72444051875000 4.65620677500000 
 N -2.12767683750000 5.17503851875000 4.65225377500000 
 N -4.50330583750000 1.26241251875000 3.75791877500000 
 N -4.38293183750000 4.58947551875000 3.57352277500000 
 N -4.74085983750000 1.64348251875000 7.62121477500000 
 N -4.95384583750000 4.71583051875000 7.33093677500000 
 S -5.68881783750000 1.37249551875000 6.31426177500000 
 S -5.78791883750000 4.55555951875000 5.89361277500000 
 S -2.89861983750000 1.51684851875000 3.20120777500000 
 S -2.78637683750000 4.92095951875000 3.12436977500000 
 S -3.09979783750000 1.72823851875000 7.35288877500000 
 S -3.31221883750000 4.92739551875000 7.24517677500000 
