16

 C -3.32106752187500 1.55852605625000 5.56221386562500 
 C -3.39169052187500 5.37831105625000 5.71908986562500 
 C -4.57921852187500 1.14469905625000 4.97793386562500 
 C -4.45861052187500 4.69633205625000 5.03794986562500 
 N -2.35416552187500 1.73500805625000 4.68269186562500 
 N -2.35439152187500 5.56284505625000 4.86818786562500 
 N -4.55484952187500 1.11740105625000 3.67371886562500 
 N -4.36206452187500 4.58822005625000 3.68473786562500 
 N -4.81816652187500 1.08787005625000 7.50440986562500 
 N -5.05850052187500 4.82839305625000 7.58896586562500 
 S -5.77731552187500 0.923923056249996 6.14814586562500 
 S -5.75264552187500 4.29585405625000 6.13175886562500 
 S -3.04519652187500 1.48369405625000 3.19083086562500 
 S -2.88553652187500 5.19354705625000 3.33903286562500 
 S -3.27194652187500 1.59746705625000 7.28655486562500 
 S -3.43405552187500 5.40301005625000 7.44452386562500 
