16

 C -3.17609664375000 1.18151880625000 5.52883132500000 
 C -3.33596164375000 4.98831980625000 5.51367032500000 
 C -4.42242664375000 0.908168806250001 4.88642832500000 
 C -4.52089764375000 4.46391380625000 4.84983632500000 
 N -2.14673364375000 1.38394180625000 4.72560932500000 
 N -2.35206964375000 5.27157380625000 4.64739732500000 
 N -4.29265164375000 0.875064806250001 3.59455132500000 
 N -4.40822464375000 4.45246280625000 3.52129832500000 
 N -4.92907064375000 1.22537280625000 7.42876432500000 
 N -5.20289464375000 4.67391780625000 7.30497132500000 
 S -5.73886764375000 0.891258806250002 6.01604432500000 
 S -5.80394664375000 4.14164180625000 5.89775632500000 
 S -2.75109564375000 1.16074680625000 3.22268732500000 
 S -2.94251364375000 4.97375180625000 3.10619532500000 
 S -3.28911264375000 1.62178880625000 7.23551832500000 
 S -3.58348164375000 5.14566080625000 7.30738032500000 
