16

 C -3.22025865937500 1.58492490000000 5.45147923125000 
 C -3.06185565937500 5.27290090000000 5.78364023125000 
 C -4.35974865937500 0.959594900000003 4.81233823125000 
 C -4.30649765937500 4.88133990000000 5.21111823125000 
 N -2.24377565937500 1.98710090000000 4.56976023125000 
 N -2.09028565937500 5.53457890000000 4.94447923125000 
 N -4.23503265937500 0.801694900000002 3.49558223125000 
 N -4.22776865937500 4.81274790000000 3.89343523125000 
 N -4.97967565937500 0.924225900000002 7.25576723125000 
 N -4.56298965937500 5.03937890000000 7.83134323125000 
 S -5.53360865937500 0.326166900000003 5.79463923125000 
 S -5.53910365937500 4.70353190000000 6.50093423125000 
 S -2.72481665937500 1.41708290000000 3.05262023125000 
 S -2.66586165937500 5.18788790000000 3.42631323125000 
 S -3.42233565937500 1.61831690000000 7.20821123125000 
 S -3.02299765937500 5.44551690000000 7.45681423125000 
