16

 C -3.12121085000000 1.49683446875000 5.41352322187500 
 C -3.44726185000000 5.27027346875000 5.24954622187500 
 C -4.34613485000000 0.792090468749999 4.96517722187500 
 C -4.47237685000000 4.46830746875000 4.63348622187500 
 N -2.24735485000000 1.67516146875000 4.41156122187500 
 N -2.43540585000000 5.62701146875000 4.49284722187500 
 N -4.27439185000000 0.348395468749998 3.69108322187500 
 N -4.20206585000000 4.19764646875000 3.37843422187500 
 N -4.78218085000000 1.27268846875000 7.46104122187500 
 N -5.12089385000000 4.90447346875000 7.08522822187500 
 S -5.54080185000000 0.547172468749999 6.12349822187500 
 S -5.74664385000000 4.08417646875000 5.77323422187500 
 S -2.84179285000000 0.986703468749998 3.04075022187500 
 S -2.73499185000000 5.04102946875000 2.97115922187500 
 S -3.22052785000000 1.87016746875000 7.16464622187500 
 S -3.65200485000000 5.58368446875000 6.95387622187500 
