16

 C -3.33122382500000 1.00873540000000 5.65609223437500 
 C -2.90370182500000 5.09278240000000 5.58446123437500 
 C -4.49981582500000 0.643675399999998 4.92384323437500 
 C -4.12832982500000 4.68614440000000 4.91344523437500 
 N -2.27122382500000 1.12731340000000 4.89406623437500 
 N -1.91073782500000 5.18770440000000 4.71148923437500 
 N -4.37779382500000 0.373161399999999 3.64176723437500 
 N -4.07394582500000 4.37767140000000 3.62365023437500 
 N -5.19416282500000 0.909545399999999 7.28977523437500 
 N -4.71506482500000 4.79383140000000 7.37105723437500 
 S -5.85101782500000 0.263863399999999 5.88245923437500 
 S -5.42747782500000 4.29152640000000 5.96262323437500 
 S -2.81711582500000 0.890517399999998 3.35130523437500 
 S -2.47213982500000 4.76739440000000 3.20913323437500 
 S -3.59880582500000 1.25821940000000 7.30826723437500 
 S -3.15105082500000 5.36651540000000 7.29417423437500 
