16

 C -3.05688516875000 1.19106220312500 5.65224523437500 
 C -2.94899116875000 4.81362720312500 5.45992723437500 
 C -4.31689516875000 0.889937203125001 5.11393823437500 
 C -4.22724116875000 4.36990820312500 4.93300023437500 
 N -2.04014716875000 1.32768520312500 4.79693623437500 
 N -1.91932116875000 4.91215820312500 4.60332723437500 
 N -4.30549016875000 0.716582203125001 3.77722323437500 
 N -4.10357516875000 3.99783320312500 3.66273123437500 
 N -4.75143116875000 1.28358520312500 7.61600423437500 
 N -4.70222016875000 4.88754220312500 7.34450523437500 
 S -5.61506316875000 0.837876203125001 6.21714423437500 
 S -5.58206816875000 4.34179020312500 6.07202423437500 
 S -2.68066816875000 0.897373203125001 3.35982823437500 
 S -2.53774216875000 4.29830020312500 3.17449323437500 
 S -3.17727416875000 1.56831120312500 7.33401723437500 
 S -3.12295416875000 5.31390620312500 7.15469623437500 
