16

 C -3.72563293125000 1.21422819687501 5.63191371250000 
 C -3.03653193125000 5.05974319687501 5.40340271250000 
 C -4.82927193125000 0.589055196875008 4.91367571250000 
 C -4.18596593125000 4.40456119687501 4.83763171250000 
 N -2.67120093125000 1.42872919687501 4.85538471250000 
 N -2.02774593125000 5.14745819687501 4.56670071250000 
 N -4.57175593125000 0.320109196875008 3.61193471250000 
 N -4.06330193125000 4.10145219687501 3.53614371250000 
 N -5.33947393125000 0.542796196875008 7.39716971250000 
 N -4.67303093125000 4.85856519687501 7.32318971250000 
 S -6.13080893125000 0.209478196875009 5.96478971250000 
 S -5.51288193125000 4.36906019687501 5.96644871250000 
 S -3.11166593125000 0.987658196875008 3.34857571250000 
 S -2.58734493125000 4.59385419687501 3.08918371250000 
 S -3.81060693125000 1.16057619687501 7.30367771250000 
 S -3.12046593125000 5.39783119687501 7.08636471250000 
