16

 C -3.08281176250000 1.23899478125000 5.46611230312500 
 C -2.89729976250000 5.27229178125000 5.47887730312500 
 C -4.25613776250000 0.887078781250002 4.68876430312500 
 C -4.15506176250000 4.93664178125000 4.86688830312500 
 N -1.93488876250000 1.40677278125000 4.85464730312500 
 N -1.88254976250000 5.21742278125000 4.63824430312500 
 N -3.91115176250000 0.830919781250001 3.38658630312500 
 N -4.13007176250000 4.66899178125000 3.53509530312500 
 N -4.92691476250000 1.29704278125000 7.16400730312500 
 N -4.80090776250000 5.18837178125000 7.38977830312500 
 S -5.61046876250000 0.694692781250001 5.83911130312500 
 S -5.52783176250000 4.91743878125000 5.87354830312500 
 S -2.28632876250000 1.03711278125000 3.29006530312500 
 S -2.57142676250000 4.85878878125000 3.12490530312500 
 S -3.28548476250000 1.43758878125000 7.18569630312500 
 S -3.07906576250000 5.47922378125000 7.28909430312500 
