16

 C -2.99138362500000 1.28068631250000 5.66847313750000 
 C -2.99430462500000 5.18261931250000 5.40278213750000 
 C -4.17940162500000 0.791554312499997 5.00867013750000 
 C -4.02877962500000 4.30528931250000 4.98074613750000 
 N -1.94342062500000 1.45098231250000 4.85721313750000 
 N -2.00085462500000 5.20232331250000 4.49579413750000 
 N -4.08051962500000 0.678447312499997 3.65554213750000 
 N -3.97345862500000 3.87015831250000 3.72491513750000 
 N -4.73711362500000 0.972670312499997 7.50742713750000 
 N -4.83367362500000 5.18490031250000 7.29957713750000 
 S -5.56079662500000 0.759983312499998 6.04116913750000 
 S -5.41761162500000 4.17466231250000 6.07992113750000 
 S -2.51614562500000 0.980885312499997 3.32953313750000 
 S -2.51117262500000 4.37821931250000 3.16693413750000 
 S -3.21613462500000 1.59448031250000 7.40228313750000 
 S -3.22940562500000 5.66153831250000 7.02412813750000 
