16

 C -3.09879096562500 1.37784765625000 5.46420856250000 
 C -2.89357696562500 5.18220065625000 5.86827956250000 
 C -4.26937396562500 0.868314656249999 4.80598056250000 
 C -4.05302796562500 4.68211065625000 5.13994856250000 
 N -2.08620696562500 1.74177165625000 4.65652756250000 
 N -1.84300096562500 5.42760165625000 5.10834856250000 
 N -4.24359296562500 0.905520656249999 3.44526256250000 
 N -3.90433496562500 4.63994465625000 3.83197856250000 
 N -4.89023696562500 0.760328656250000 7.37996656250000 
 N -4.74411196562500 4.93212765625000 7.60409656250000 
 S -5.65333496562500 0.626733656249999 5.88507856250000 
 S -5.44134296562500 4.53985065625000 6.16189256250000 
 S -2.72751896562500 1.47202765625000 3.08461756250000 
 S -2.31391296562500 5.05153765625000 3.51216756250000 
 S -3.32358996562500 1.24315265625000 7.25148256250000 
 S -3.15968796562500 5.42385065625000 7.64011956250000 
