16

 C -3.14521539687500 1.20054034062500 5.43911998437500 
 C -3.05931439687500 4.67064334062500 5.55044998437500 
 C -4.26937739687500 0.599082340625003 4.75351698437500 
 C -4.31566339687500 4.37138534062500 4.88356298437500 
 N -2.06877139687500 1.47423534062500 4.69098598437500 
 N -2.02418839687500 4.80632234062500 4.73514898437500 
 N -4.02717739687500 0.364892340625003 3.44793798437500 
 N -4.13991239687500 4.09322334062500 3.59237898437500 
 N -5.00883839687500 1.06444234062500 7.21948998437500 
 N -4.92355539687500 5.11368234062500 7.26015398437500 
 S -5.69323639687500 0.351751340625003 5.84911398437500 
 S -5.68766539687500 4.43892734062500 5.91293698437500 
 S -2.54962439687500 1.05363134062500 3.15722798437500 
 S -2.56292439687500 4.44909334062500 3.18813298437500 
 S -3.48144739687500 1.68205434062500 7.10617798437500 
 S -3.29570739687500 5.43649434062500 7.16818398437500 
