16

 C -3.14905450000000 1.60272195937500 5.44531493750000 
 C -3.09240650000000 5.09578095937500 5.60096893750000 
 C -4.40745350000000 1.25446995937500 4.79879893750000 
 C -4.26918050000000 4.53760895937500 4.98325893750000 
 N -2.16980650000000 1.84650795937500 4.58771193750000 
 N -2.01716750000000 5.18601495937500 4.74697693750000 
 N -4.36370750000000 1.26316195937500 3.47542793750000 
 N -4.16606950000000 4.35759095937500 3.65694293750000 
 N -4.94784850000000 1.26224695937500 7.36354593750000 
 N -4.86990350000000 4.66919395937500 7.42870293750000 
 S -5.72358750000000 0.937408959375001 5.87481693750000 
 S -5.68124150000000 4.39126095937500 6.05912193750000 
 S -2.78433850000000 1.52520495937500 3.04064493750000 
 S -2.57874650000000 4.70689195937500 3.23107293750000 
 S -3.39181150000000 1.69229995937500 7.12004393750000 
 S -3.35473250000000 5.34336495937500 7.34360293750000 
