16

 C -2.86377973437500 1.34561156875000 5.82524353125000 
 C -3.24799573437500 5.05241856875000 5.66415353125000 
 C -4.17651173437500 1.30222056875000 5.16989553125000 
 C -4.52325773437500 4.84861756875000 4.98094253125000 
 N -1.81727573437500 1.41748756875000 5.01095753125000 
 N -2.19599473437500 5.10873856875000 4.86062953125000 
 N -4.05708373437500 1.25970356875000 3.84983553125000 
 N -4.47274273437500 4.77560056875000 3.65157753125000 
 N -4.59783973437500 1.41300956875000 7.64934353125000 
 N -5.08718973437500 4.84631456875000 7.48224853125000 
 S -5.45256073437500 1.26050856875000 6.28570953125000 
 S -5.85306473437500 4.62767956875000 5.99912753125000 
 S -2.47730573437500 1.32365456875000 3.45237853125000 
 S -2.88486273437500 4.90239056875000 3.28788453125000 
 S -2.94598973437500 1.55322956875000 7.48964453125000 
 S -3.43036173437500 5.11335956875000 7.43181953125000 
