16

 C -3.06762146875000 1.28663815000000 5.54525139375000 
 C -2.96356646875000 5.15044015000000 5.61031939375000 
 C -4.22510246875000 0.770251149999996 4.84277139375000 
 C -4.10029346875000 4.49939215000000 5.00667639375000 
 N -1.95688446875000 1.29031415000000 4.83603439375000 
 N -1.92698746875000 5.35572215000000 4.81240839375000 
 N -4.00898746875000 0.457254149999996 3.56358539375000 
 N -3.95102046875000 4.32992315000000 3.69449339375000 
 N -4.86807546875000 0.988967149999996 7.31377939375000 
 N -4.69751246875000 4.67362915000000 7.47087039375000 
 S -5.57851646875000 0.613638149999996 5.81680439375000 
 S -5.45621946875000 4.33343815000000 6.04397539375000 
 S -2.47236046875000 0.839386149999996 3.34056539375000 
 S -2.46017246875000 4.90259515000000 3.30331739375000 
 S -3.22871046875000 1.28349415000000 7.26036239375000 
 S -3.15993546875000 5.36085115000000 7.33115139375000 
