16

 C -3.28266713125000 1.21244734375000 5.67120907500000 
 C -2.91436913125000 5.09972534375000 5.53418707500000 
 C -4.47773913125000 0.680922343750002 5.04325507500000 
 C -4.12406013125000 4.63742534375000 4.90851807500000 
 N -2.18819313125000 1.31044734375000 4.88480307500000 
 N -1.92445713125000 5.27412334375000 4.66658607500000 
 N -4.27867313125000 0.444934343750002 3.72808607500000 
 N -4.06236113125000 4.45133134375000 3.58697807500000 
 N -5.04369713125000 0.706238343750002 7.44354107500000 
 N -4.64089213125000 4.66116534375000 7.36534907500000 
 S -5.80624813125000 0.358874343750002 6.02615707500000 
 S -5.42965413125000 4.29343434375000 5.97126007500000 
 S -2.77991713125000 0.907234343750002 3.40494307500000 
 S -2.51171613125000 4.89212034375000 3.19990107500000 
 S -3.50918413125000 1.25959734375000 7.34926207500000 
 S -3.10927113125000 5.25151334375000 7.30954007500000 
