16

 C -2.95326869375000 1.36416736875000 5.74212259062500 
 C -3.17746369375000 4.73785736875000 5.55566559062500 
 C -4.15815269375000 1.16031436875000 4.99730859062500 
 C -4.30567969375000 4.36372636875000 4.79220959062500 
 N -1.84983369375000 1.48995136875000 4.99849659062500 
 N -2.01759069375000 4.80707036875000 4.91323359062500 
 N -3.90584269375000 1.04372636875000 3.66087059062500 
 N -3.97625969375000 4.06392536875000 3.52167759062500 
 N -4.87791269375000 1.50192036875000 7.41930959062500 
 N -5.17481669375000 4.87287736875000 7.16976059062500 
 S -5.59000069375000 1.15053336875000 6.00719659062500 
 S -5.70819369375000 4.35469936875000 5.67596359062500 
 S -2.31107169375000 1.26087336875000 3.43466559062500 
 S -2.36750469375000 4.34661536875000 3.37245459062500 
 S -3.29069169375000 1.55248736875000 7.47417359062500 
 S -3.47615969375000 5.01015836875000 7.25575859062500 
