16

 C -3.07243741562500 1.78208609375000 5.32775348437500 
 C -3.51588041562500 5.08388809375000 5.10682148437500 
 C -4.12499241562500 0.898539093750002 4.82323948437500 
 C -4.58507041562500 4.21363309375000 4.56232448437500 
 N -1.94593341562500 1.90671609375000 4.59207648437500 
 N -2.48066541562500 5.19788109375000 4.29539448437500 
 N -3.81180941562500 0.462287093750002 3.61037548437500 
 N -4.41141141562500 3.86544709375000 3.29570148437500 
 N -4.68872641562500 1.20786709375000 7.28387848437500 
 N -5.44741941562500 4.92853009375000 6.81721948437500 
 S -5.51765241562500 0.703551093750002 5.91840648437500 
 S -5.97981641562500 4.10314209375000 5.53843748437500 
 S -2.38501941562500 1.11336209375000 3.18583648437500 
 S -2.89680741562500 4.47095809375000 2.86681348437500 
 S -3.36312841562500 2.20583309375000 7.01457748437500 
 S -3.89126741562500 5.45458609375000 6.82945248437500 
