16

 C -3.13029701875000 1.44075310937500 5.45778027187500 
 C -3.26911801875000 5.13492010937500 5.40878927187500 
 C -4.30185001875000 0.846916109375000 4.80148327187500 
 C -4.53129301875000 4.71634610937500 4.85315327187500 
 N -2.05866001875000 1.58430210937500 4.69226127187500 
 N -2.28061001875000 5.09382710937500 4.52447227187500 
 N -4.03365401875000 0.411508109374999 3.55780227187500 
 N -4.47238401875000 4.27881610937500 3.59670027187500 
 N -4.97952501875000 1.43994310937500 7.29105827187500 
 N -4.98191401875000 5.27280310937500 7.34882927187500 
 S -5.66243701875000 0.694905109375000 5.96735327187500 
 S -5.80536201875000 4.64156610937500 6.01132227187500 
 S -2.52066201875000 0.945067109375000 3.18304627187500 
 S -2.93570601875000 4.60376410937500 3.04955227187500 
 S -3.40070701875000 1.89091110937500 7.09088227187500 
 S -3.37951201875000 5.63477310937500 7.05896027187500 
