16

 C -3.03583011562500 1.36426115937500 5.31809489687500 
 C -3.26187611562500 5.16391515937500 5.67172489687500 
 C -4.30976011562500 0.970526159375000 4.78530789687500 
 C -4.46943111562500 4.71753415937500 5.05078689687500 
 N -2.08899311562500 1.30231015937500 4.37909989687500 
 N -2.25591511562500 5.35259515937500 4.83913589687500 
 N -4.37041311562500 0.620876159374999 3.51360789687500 
 N -4.34366611562500 4.57808815937500 3.72992789687500 
 N -4.78875211562500 1.53817815937500 7.16081189687500 
 N -4.88790411562500 4.83398315937500 7.61237689687500 
 S -5.68404611562500 1.03977815937500 5.84814789687500 
 S -5.74058011562500 4.55511015937500 6.25174089687500 
 S -2.80991911562500 0.761766159375000 2.89089489687500 
 S -2.76131311562500 4.97797415937500 3.30510989687500 
 S -3.15292011562500 1.73476715937500 7.03963889687500 
 S -3.19524411562500 5.24207815937500 7.35180089687500 
