16

 C -2.83152140312500 1.28164900625000 5.78142041562500 
 C -2.99539440312500 4.64614600625000 5.54096041562500 
 C -4.09092440312500 1.14322400625000 5.07748141562500 
 C -4.21740740312500 4.38499000625001 4.74290941562500 
 N -1.79269240312500 1.14178100625000 4.90924241562500 
 N -1.85037140312500 4.67104800625000 4.83048241562500 
 N -4.00814240312500 1.00892100625000 3.77451541562500 
 N -3.93273740312500 4.22384900625000 3.46990741562500 
 N -4.74483740312500 1.54986000625000 7.49347341562500 
 N -4.99892740312500 4.86269000625001 7.18879241562500 
 S -5.54311640312500 1.30379100625001 6.06227741562500 
 S -5.70763640312500 4.34700300625000 5.79319541562500 
 S -2.47168040312500 1.04027400625001 3.40823741562500 
 S -2.31095240312500 4.39476600625001 3.24627741562500 
 S -3.09690440312500 1.59328900625001 7.48199241562500 
 S -3.32327840312500 5.10858700625000 7.15742041562500 
