16

 C -2.84593185000000 1.47555463750000 5.43718527187500 
 C -3.47452385000000 5.09684863750000 5.21065227187500 
 C -4.05749285000000 1.09626063750000 4.81700927187500 
 C -4.55525485000000 4.39095863750000 4.64816027187500 
 N -1.77857585000000 1.55560663750000 4.64702927187500 
 N -2.35215485000000 5.18805663750000 4.46991127187500 
 N -3.93057985000000 0.870481637499999 3.56733527187500 
 N -4.28923985000000 3.97231263750000 3.40459127187500 
 N -4.76979685000000 1.41567063750000 7.13742927187500 
 N -5.34864085000000 5.15032263750000 7.04492027187500 
 S -5.45560285000000 0.815204637499999 5.72656727187500 
 S -5.85851485000000 4.15152163750000 5.77450327187500 
 S -2.35232385000000 1.17327863750000 3.08472227187500 
 S -2.76736585000000 4.39259563750000 3.04384027187500 
 S -3.15133885000000 1.91839063750000 7.09489827187500 
 S -3.82442385000000 5.85462663750000 6.73951227187500 
