16

 C -2.96043967500000 1.40752747187500 5.38215366562500 
 C -3.25482167500000 5.22615747187500 5.47276166562500 
 C -4.20753867500000 1.04985547187500 4.83142466562500 
 C -4.41084067500000 4.74408547187500 4.75231566562500 
 N -2.06237367500000 1.65564447187500 4.40955766562500 
 N -2.25022867500000 5.61103847187500 4.68498066562500 
 N -4.28667967500000 0.878115471874997 3.52036766562500 
 N -4.25441967500000 4.64791547187500 3.43791666562500 
 N -4.58707167500000 1.17211847187500 7.37049066562500 
 N -5.08655067500000 4.69331247187500 7.23559266562500 
 S -5.44607267500000 0.746061471874997 5.98084066562500 
 S -5.78736867500000 4.37115347187500 5.76714866562500 
 S -2.73762767500000 1.24223247187500 2.96502166562500 
 S -2.66522967500000 5.14589947187500 3.15729766562500 
 S -3.00102867500000 1.61318647187500 7.13587666562500 
 S -3.54472767500000 5.20565847187500 7.17091166562500 
