16

 C -3.27007049375000 1.12845821250000 5.47674462187500 
 C -2.79114349375000 5.08355621250000 5.48458562187500 
 C -4.54271549375000 0.668566212500000 4.95976762187500 
 C -3.96998449375000 4.84901121250000 4.68224562187500 
 N -2.32268149375000 1.19451221250000 4.57266462187500 
 N -1.73512249375000 5.34792521250000 4.73231262187500 
 N -4.55965449375000 0.472354212500000 3.64375662187500 
 N -3.82509549375000 4.85538421250000 3.35312662187500 
 N -4.76984649375000 1.38622121250000 7.41399562187500 
 N -4.76686149375000 5.09498921250000 7.19429962187500 
 S -5.71297549375000 0.610330212500000 6.23273462187500 
 S -5.40924849375000 4.64409921250000 5.69974862187500 
 S -3.00721049375000 0.852868212500000 3.11936762187500 
 S -2.19351249375000 5.15730921250000 3.15064762187500 
 S -3.11552949375000 1.31032221250000 7.19693762187500 
 S -3.11492049375000 5.12402421250000 7.16566362187500 
