16

 C -3.24091451875000 1.38832796562500 5.71377810000000 
 C -3.30555551875000 5.14621096562500 5.41513410000000 
 C -4.33987651875000 0.907296965625002 5.02772810000000 
 C -4.55232051875000 4.72496696562500 4.78069410000000 
 N -2.21852551875000 1.67259796562500 4.94400910000000 
 N -2.29394651875000 5.34860996562500 4.58585210000000 
 N -4.22791351875000 0.739012965625002 3.73476810000000 
 N -4.48946051875000 4.71609896562500 3.43996810000000 
 N -5.14474051875000 1.14315696562500 7.34493310000000 
 N -5.06370751875000 4.90582396562500 7.26569110000000 
 S -5.76551751875000 0.574602965625002 5.89034010000000 
 S -5.88336251875000 4.39304896562500 5.88732310000000 
 S -2.64399651875000 1.16047496562500 3.43753410000000 
 S -2.89553651875000 5.15687996562500 3.06068010000000 
 S -3.55317351875000 1.59513296562500 7.37334710000000 
 S -3.47806051875000 5.28339896562500 7.12754610000000 
