16

 C -3.00943927812500 1.31742874375000 5.51865951562500 
 C -3.18558327812500 5.07127074375000 5.52864251562500 
 C -4.28015927812500 1.24038274375000 4.88817651562500 
 C -4.40164427812500 4.62783774375000 4.90602951562500 
 N -1.99086327812500 1.30734674375000 4.69696651562500 
 N -2.13157127812500 5.13596774375000 4.74994851562500 
 N -4.16802427812500 0.994490743750002 3.60177351562500 
 N -4.26666227812500 4.30269474375000 3.63033851562500 
 N -4.84181527812500 1.51279974375000 7.32578251562500 
 N -5.01886927812500 5.18659074375000 7.32509551562500 
 S -5.62449927812500 1.51779374375000 5.85925251562500 
 S -5.75872427812500 4.58384674375000 5.95437451562500 
 S -2.58319127812500 1.08107874375000 3.14192051562500 
 S -2.73346727812500 4.65515174375000 3.20526551562500 
 S -3.16226727812500 1.58358374375000 7.21551351562500 
 S -3.41218927812500 5.44576874375000 7.19964751562500 
