16

 C -2.75383735312500 1.73047845937500 5.30416780937500 
 C -3.31416935312500 5.00246545937500 5.56317680937500 
 C -3.88738535312500 0.996103459374999 4.75351080937500 
 C -4.54948335312500 4.61592945937500 4.92656080937500 
 N -1.85322135312500 2.04905845937500 4.36588680937500 
 N -2.29997235312500 5.43463145937500 4.78228580937500 
 N -3.87007735312500 0.756197459374999 3.41310180937500 
 N -4.37385935312500 4.57439145937500 3.61032580937500 
 N -4.22328435312500 1.05993045937500 7.34097780937500 
 N -5.07089535312500 4.40660245937500 7.45646780937500 
 S -5.02999835312500 0.568454459374999 5.99692680937500 
 S -5.79750535312500 3.99618245937500 6.01556780937500 
 S -2.43182435312500 1.43565545937500 2.91024280937500 
 S -2.79974035312500 5.04410145937500 3.24397780937500 
 S -2.76117735312500 1.83518845937500 7.11923580937500 
 S -3.49226935312500 4.99964145937500 7.31037580937500 
