16

 C -3.27678802187500 1.21223591250000 5.66668716250000 
 C -2.91435602187500 5.09599591250000 5.52981716250000 
 C -4.48444602187500 0.687699912500001 5.04158316250000 
 C -4.13439102187500 4.65285891250000 4.90850116250000 
 N -2.17737502187500 1.30699991250000 4.88475816250000 
 N -1.92764902187500 5.27714891250000 4.66545416250000 
 N -4.28371102187500 0.442275912500001 3.72480216250000 
 N -4.06449902187500 4.45581191250000 3.59158416250000 
 N -5.04072702187500 0.711331912500001 7.44839316250000 
 N -4.63754502187500 4.66143391250000 7.36039416250000 
 S -5.80382602187500 0.358114912500001 6.03052016250000 
 S -5.43546502187500 4.28892691250000 5.97864116250000 
 S -2.78186302187500 0.911599912500002 3.40482116250000 
 S -2.51129502187500 4.89155891250000 3.20255216250000 
 S -3.51182602187500 1.26522591250000 7.34758916250000 
 S -3.11015602187500 5.25138391250000 7.30872416250000 
