16

 C -3.26078434062500 1.32958731562500 5.24738884375000 
 C -3.28099434062500 5.12734931562500 5.36382084375000 
 C -4.49647134062500 0.868928315625003 4.64182884375000 
 C -4.52445734062500 4.69585331562500 4.82002584375000 
 N -2.28823934062500 1.34902231562500 4.30492084375000 
 N -2.26375734062500 5.18068131562500 4.44869584375000 
 N -4.47353234062500 0.457704315625004 3.36426884375000 
 N -4.48875234062500 4.42624031562500 3.51062984375000 
 N -4.95934634062500 1.00865731562500 7.14577384375000 
 N -4.79132234062500 4.81075931562500 7.45219684375000 
 S -5.80019434062500 0.811994315625003 5.79402784375000 
 S -5.80322834062500 4.59269631562500 6.05274484375000 
 S -2.91962234062500 0.747215315625003 2.91095684375000 
 S -2.89294634062500 4.71637631562500 3.03056484375000 
 S -3.39538734062500 1.45359031562500 6.98191284375000 
 S -3.24220734062500 5.31875631562500 7.11613284375000 
