16

 C -2.95644685937500 1.25129848750000 5.37396116875000 
 C -2.83494185937500 5.14584848750000 5.66779816875000 
 C -4.17262785937500 0.757273487500000 4.59067716875000 
 C -4.12595685937500 4.68152048750000 5.16008216875000 
 N -1.87670185937500 1.45890348750000 4.63163016875000 
 N -1.91923485937500 5.27424248750000 4.69546016875000 
 N -3.94329985937500 0.543773487500000 3.30010216875000 
 N -4.21041485937500 4.44870548750000 3.84374716875000 
 N -4.71616985937500 0.786258487500000 7.13533416875000 
 N -4.42859285937500 4.79232848750000 7.72203016875000 
 S -5.44481785937500 0.331164487500000 5.73034116875000 
 S -5.31254885937500 4.34480548750000 6.39368516875000 
 S -2.36509085937500 1.04293348750000 3.09427716875000 
 S -2.66303385937500 4.80363048750000 3.24750916875000 
 S -3.18960785937500 1.45822148750000 7.03306516875000 
 S -2.84368985937500 5.32661448750000 7.46326816875000 
