16

 C -3.16230533125000 1.27529830000000 5.52352128750000 
 C -3.28567833125000 5.04403230000000 5.47855928750000 
 C -4.41503633125000 1.09288530000000 4.86258028750000 
 C -4.52792633125000 4.67208230000000 4.82208128750000 
 N -2.08905933125000 1.23303830000000 4.70557328750000 
 N -2.21922833125000 4.96569930000000 4.67008728750000 
 N -4.31548433125000 0.860757300000002 3.55472928750000 
 N -4.37160633125000 4.42319930000000 3.52147728750000 
 N -5.00765033125000 1.38309230000000 7.37421028750000 
 N -5.00146733125000 5.10388830000000 7.32326628750000 
 S -5.73933233125000 1.45665930000000 5.89590128750000 
 S -5.81651033125000 4.45901130000000 5.97887728750000 
 S -2.64906633125000 0.972089300000002 3.20841028750000 
 S -2.72377333125000 4.49761530000000 3.16825128750000 
 S -3.32504433125000 1.42576030000000 7.28700328750000 
 S -3.41650133125000 5.58416430000000 7.10963828750000 
