16

 C -3.23612233125000 1.31905342812500 5.52336412187500 
 C -3.23200933125000 5.13206142812500 5.30482712187500 
 C -4.54562433125000 1.12594042812500 4.85533312187500 
 C -4.47295333125000 4.68256642812500 4.75219012187500 
 N -2.15290533125000 1.22476342812500 4.75047212187500 
 N -2.20716333125000 4.99937942812500 4.47457912187500 
 N -4.43007633125000 0.983514428125001 3.52631212187500 
 N -4.41571633125000 4.26819542812500 3.51066612187500 
 N -5.08547333125000 1.28451142812500 7.33940912187500 
 N -4.98662433125000 4.95431042812500 7.21073412187500 
 S -5.93638133125000 1.14473242812500 5.91816912187500 
 S -5.78682733125000 4.48830242812500 5.80950312187500 
 S -2.75156533125000 0.952582428125001 3.27681312187500 
 S -2.80814133125000 4.44079342812500 3.07758312187500 
 S -3.42121733125000 1.39635142812500 7.25252612187500 
 S -3.47239033125000 5.50644942812500 7.00978012187500 
