16

 C -3.42738705000000 1.19264500000000 5.84676288437500 
 C -3.22004805000000 5.11216800000000 5.16993888437500 
 C -4.59118905000000 0.853604000000000 5.12457488437500 
 C -4.38719405000000 4.58081100000000 4.52471088437500 
 N -2.27084705000000 1.43077200000000 5.16084988437500 
 N -2.10988205000000 5.11374200000000 4.40009188437500 
 N -4.35881605000000 0.810763000000000 3.79402488437500 
 N -4.25924705000000 4.43735100000000 3.19437588437500 
 N -5.30688005000000 0.920090000000001 7.64043388437500 
 N -5.01877305000000 4.90160300000000 7.01138588437500 
 S -6.01943605000000 0.650102000000000 6.15200488437500 
 S -5.73636205000000 4.53525300000000 5.54876788437500 
 S -2.77386405000000 1.24163100000000 3.59157588437500 
 S -2.67150905000000 4.79197300000000 2.87563988437500 
 S -3.72939205000000 1.36270800000000 7.51885788437500 
 S -3.45822605000000 5.33066800000000 6.92822088437500 
