16

 C -3.12348264062500 1.44951634375000 5.59004700312500 
 C -3.32136564062500 5.06333034375000 5.27469400312500 
 C -4.23669264062500 1.05383134375000 4.79309800312500 
 C -4.42047964062500 4.37263434375000 4.62139600312500 
 N -1.98803364062500 1.64570534375000 4.90839900312500 
 N -2.25013264062500 5.24958834375000 4.49564700312500 
 N -3.93060264062500 0.783949343750002 3.51546400312500 
 N -4.08788064062500 3.92327134375000 3.39592000312500 
 N -5.09089064062500 1.22468234375000 7.25592200312500 
 N -5.29624664062500 5.34674634375000 6.82732900312500 
 S -5.72691464062500 0.955287343750002 5.78195000312500 
 S -5.87328864062500 4.39978734375000 5.59668300312500 
 S -2.37084864062500 1.19640234375000 3.32288100312500 
 S -2.58664964062500 4.41633034375000 3.11223100312500 
 S -3.47282164062500 1.64506634375000 7.26125800312500 
 S -3.68103264062500 5.64835234375000 6.86253300312500 
