16

 C -3.23888552500000 1.22554650625000 5.30711760937500 
 C -2.87590752500000 5.11876750625000 5.44131160937500 
 C -4.49232852500000 0.890946506249999 4.67185160937500 
 C -4.07362352500000 4.60089150625000 4.76654660937500 
 N -2.21779452500000 1.21368950625000 4.45875660937500 
 N -1.90451052500000 5.37776250625000 4.57056560937500 
 N -4.41055952500000 0.542700506249998 3.38912160937500 
 N -3.97951952500000 4.29157850625000 3.46763960937500 
 N -5.05079852500000 1.64949750625000 7.00672560937500 
 N -4.77427652500000 5.08285850625000 7.17256560937500 
 S -5.82514752500000 0.955337506249998 5.69401160937500 
 S -5.41111452500000 4.35617950625000 5.84284260937500 
 S -2.81873852500000 0.786101506249999 2.96414160937500 
 S -2.44816752500000 4.84958250625000 3.10777960937500 
 S -3.36181852500000 1.60734250625000 7.00308060937500 
 S -3.19496552500000 5.56520650625000 7.05022260937500 
