16

 C -2.96560344062500 1.21164332499999 5.71350828750000 
 C -2.94048044062500 4.73209332499999 5.43598028750000 
 C -4.28272044062500 1.02844132499999 5.24609528750000 
 C -4.17167744062500 4.48723332499999 4.74231028750000 
 N -2.02621344062500 0.935222324999994 4.75487128750000 
 N -1.90997844062500 4.91071532499999 4.64433728750000 
 N -4.44778944062500 0.632855324999995 3.98238128750000 
 N -4.01266244062500 4.28527532499999 3.47003428750000 
 N -4.49706044062500 1.74848232500000 7.69813228750000 
 N -4.63317544062500 4.87500732499999 7.26588228750000 
 S -5.49126344062500 1.42444532499999 6.41469128750000 
 S -5.49367844062500 4.58983132499999 5.84012828750000 
 S -2.86407344062500 0.554945324999994 3.38411728750000 
 S -2.40844444062500 4.60416732499999 3.10457428750000 
 S -2.89970144062500 1.58900032499999 7.42013928750000 
 S -2.99811444062500 4.79155532499999 7.12500328750000 
