16

 C -2.89069465000000 1.38442971562500 5.77014760312500 
 C -3.15072265000000 5.10023371562500 5.47667860312500 
 C -4.12628365000000 0.787016715625001 5.19333260312500 
 C -4.42348165000000 4.64923771562500 4.90850860312500 
 N -1.82805165000000 1.34343771562500 4.98609560312500 
 N -2.13953465000000 5.02001371562500 4.61002260312500 
 N -4.02488565000000 0.459009715625001 3.90059260312500 
 N -4.35030065000000 4.33266371562500 3.63283060312500 
 N -4.62457065000000 1.53421071562500 7.59467260312500 
 N -4.78796265000000 4.97773971562500 7.36028260312500 
 S -5.39145965000000 0.872571715625001 6.27704960312500 
 S -5.68493065000000 4.59119571562500 6.03460960312500 
 S -2.41696265000000 0.658768715625001 3.57809560312500 
 S -2.75425065000000 4.45530171562500 3.17545360312500 
 S -3.00158665000000 1.90530571562500 7.34806760312500 
 S -3.13798065000000 5.25294071562500 7.24885760312500 
