16

 C -3.04629995937500 1.72511705937500 5.40822553125000 
 C -3.51192295937500 5.01640305937500 5.11741253125000 
 C -4.09941395937500 0.841238059374999 4.90058853125000 
 C -4.59429795937500 4.31252805937500 4.52429453125000 
 N -2.07438895937500 2.00492405937500 4.54085853125000 
 N -2.50862995937500 5.26155405937500 4.23711153125000 
 N -3.88518595937500 0.409831059375000 3.65225553125000 
 N -4.36733495937500 3.88317005937500 3.28690353125000 
 N -4.69290895937500 1.19982405937500 7.29210653125000 
 N -5.43535495937500 4.89447905937500 6.82445853125000 
 S -5.46607295937500 0.695942059375000 5.91796253125000 
 S -6.04038195937500 4.06106105937500 5.52703953125000 
 S -2.45060795937500 1.08508005937500 3.23756053125000 
 S -2.92700695937500 4.48481805937500 2.84104953125000 
 S -3.39734495937500 2.19891005937500 7.00882653125000 
 S -3.88187795937500 5.36962805937500 6.80393453125000 
