16

 C -3.11806207500000 1.26370413750000 5.55101571250000 
 C -2.99722207500000 5.11495413750000 5.62992771250000 
 C -4.25990707500000 0.724676137500003 4.84281971250000 
 C -4.10726907500000 4.53773013750000 4.94341971250000 
 N -1.99536907500000 1.22407513750000 4.84837571250000 
 N -1.94389907500000 5.31207413750000 4.83139271250000 
 N -4.04069407500000 0.423530137500003 3.59101671250000 
 N -3.92473507500000 4.32416813750000 3.63802171250000 
 N -4.93079307500000 1.00237213750000 7.32824471250000 
 N -4.68918807500000 4.70515413750000 7.48895271250000 
 S -5.62881807500000 0.574792137500003 5.85270771250000 
 S -5.45839007500000 4.32324913750000 6.06930071250000 
 S -2.45177207500000 0.851796137500004 3.33333271250000 
 S -2.44859607500000 4.91321213750000 3.29488071250000 
 S -3.26397607500000 1.27687113750000 7.24626571250000 
 S -3.15062507500000 5.35959913750000 7.32685471250000 
