16

 C -2.81170423437500 1.94983921250000 5.55292249687500 
 C -3.13000823437500 5.29467821250000 5.67673149687500 
 C -4.12577323437500 1.52135821250000 5.00309449687500 
 C -4.36127523437500 4.78308721250000 5.13225149687500 
 N -1.82742423437500 1.91142421250000 4.64196449687500 
 N -2.12504523437500 5.37350621250000 4.80247749687500 
 N -4.09389223437500 1.20277021250000 3.69987449687500 
 N -4.33572323437500 4.55580621250000 3.83711649687500 
 N -4.47171923437500 1.46532021250000 7.51472249687500 
 N -4.94837023437500 5.10204521250000 7.61326849687500 
 S -5.42729423437500 1.53301121250000 6.14147349687500 
 S -5.74580223437500 4.68049521250000 6.19633749687500 
 S -2.60608023437500 1.57388321250000 3.17019849687500 
 S -2.80196223437500 4.89243421250000 3.30570149687500 
 S -2.87388223437500 1.95494321250000 7.31217549687500 
 S -3.27680323437500 5.34133521250000 7.40543249687500 
