16

 C -3.09688912500000 1.46433641562500 5.35385360625000 
 C -3.20143712500000 5.25012341562500 5.68024760625000 
 C -4.24469112500000 0.671514415625003 4.89391960625000 
 C -4.38187012500000 4.69750841562500 5.04979460625000 
 N -2.14792312500000 1.62869641562500 4.41763760625000 
 N -2.13016112500000 5.38483441562500 4.95949960625000 
 N -4.15321312500000 0.166775415625002 3.66697760625000 
 N -4.22525312500000 4.46382841562500 3.76470560625000 
 N -4.97432912500000 1.49641741562500 7.14856960625000 
 N -4.96978212500000 5.01654641562500 7.58369660625000 
 S -5.64587212500000 0.771426415625003 5.83718160625000 
 S -5.79771912500000 4.54793341562500 6.19985260625000 
 S -2.64160212500000 0.678223415625003 3.10185560625000 
 S -2.63748512500000 4.97532341562500 3.40658460625000 
 S -3.42770312500000 2.06307641562500 7.00398860625000 
 S -3.49645912500000 5.73753441562500 7.34018460625000 
