16

 C -3.50490160625000 1.80146020312500 5.58101613750000 
 C -2.86916760625000 5.16847120312500 5.57157413750000 
 C -4.65521160625000 1.24717920312500 4.93386413750000 
 C -4.19361060625000 4.92384820312500 4.98718713750000 
 N -2.44613160625000 2.08745320312500 4.83571113750000 
 N -1.89836860625000 5.22851920312500 4.63471913750000 
 N -4.45479760625000 1.02956020312500 3.63264913750000 
 N -4.24386760625000 4.78080620312500 3.67641113750000 
 N -5.10530260625000 1.32538120312500 7.43791713750000 
 N -4.69463560625000 4.92058020312500 7.50189013750000 
 S -6.00823460625000 1.16757120312500 6.06223213750000 
 S -5.51864160625000 4.87820120312500 6.06167913750000 
 S -2.80325860625000 1.41166620312500 3.33929713750000 
 S -2.73560260625000 4.95826220312500 3.13596513750000 
 S -3.55962560625000 1.82484920312500 7.25250513750000 
 S -2.99987860625000 5.28847420312500 7.30739113750000 
