16

 C -3.07145002187500 1.58490376875000 5.46781040312500 
 C -3.06897702187500 5.31946876875000 5.49384140312500 
 C -4.30411702187500 1.19983376875000 4.80130840312500 
 C -4.30659902187500 5.01968176875000 4.81473740312500 
 N -2.03039702187500 1.82705976875000 4.67212440312500 
 N -2.03065702187500 5.35591976875000 4.68051840312500 
 N -4.12999402187500 1.00479276875000 3.49901640312500 
 N -4.17177702187500 4.82496176875000 3.48518740312500 
 N -4.79921402187500 1.38778676875000 7.36745440312500 
 N -4.77448602187500 5.05000476875000 7.38635640312500 
 S -5.59447702187500 1.01669476875000 5.93361140312500 
 S -5.60918302187500 4.89139176875000 5.95940840312500 
 S -2.51086102187500 1.37498476875000 3.18657140312500 
 S -2.58183302187500 5.11483776875000 3.16601040312500 
 S -3.18043302187500 1.74572976875000 7.21007340312500 
 S -3.13048702187500 5.47230676875000 7.23588640312500 
