16

 C -3.15466342500000 1.42552161875000 5.65139208437500 
 C -2.87309042500000 5.24623661875000 5.45362508437500 
 C -4.45117342500000 1.12896861875000 5.01948408437500 
 C -4.08958642500000 4.86614261875000 4.81773608437500 
 N -2.11097242500000 1.52655261875000 4.88844608437500 
 N -1.84550242500000 5.36790661875000 4.59074808437500 
 N -4.32806742500000 1.10574061875000 3.70085408437500 
 N -4.10908242500000 4.75388661875000 3.47312708437500 
 N -4.83330542500000 1.56465161875000 7.54732408437500 
 N -4.71433142500000 5.09235461875000 7.34701408437500 
 S -5.68993042500000 0.870610618749996 6.23514008437500 
 S -5.39437542500000 4.55996061875000 5.85807708437500 
 S -2.69891142500000 1.44867161875000 3.29924608437500 
 S -2.59634442500000 5.13861161875000 3.04720508437500 
 S -3.19848942500000 1.80265861875000 7.33616108437500 
 S -3.06100342500000 5.38271061875000 7.22618308437500 
