16

 C -2.86978878125000 1.31029338750000 5.34355560937500 
 C -3.17278378125000 4.98948438749999 5.40482860937500 
 C -4.12886078125000 0.883721387499995 4.84915260937500 
 C -4.41042978125000 4.44942538750000 4.86172860937500 
 N -1.97550378125000 1.44920638750000 4.33799560937500 
 N -2.28030178125000 5.28557938749999 4.44875660937500 
 N -4.25591878125000 0.641136387499995 3.51095960937500 
 N -4.47851578125000 4.31967438749999 3.55486760937500 
 N -4.52946078125000 1.28597838750000 7.31042460937500 
 N -4.85164878125000 4.97144438750000 7.34058360937500 
 S -5.38968378125000 0.886869387499995 5.99530860937500 
 S -5.62032878125000 4.19927338750000 6.11407660937500 
 S -2.71906578125000 1.03326838750000 2.88682660937500 
 S -2.98343578125000 4.95103338749999 3.01096460937500 
 S -2.95433178125000 1.68988338750000 7.09778960937500 
 S -3.22647978125000 5.41471638749999 7.01113860937500 
