16

 C -3.16528185625000 1.46938950312500 5.54943235312500 
 C -2.82591085625000 5.34712450312500 5.38400735312500 
 C -4.39889585625000 0.927312503125002 5.06117035312500 
 C -4.11527285625000 4.87580950312500 4.83931135312500 
 N -2.15837685625000 1.64440250312500 4.69524035312500 
 N -1.91098985625000 5.61279550312500 4.48590535312500 
 N -4.31677785625000 0.586739503125001 3.74985235312500 
 N -4.15765985625000 4.78675350312500 3.52828535312500 
 N -4.64614385625000 1.15748850312500 7.64880235312500 
 N -4.57968885625000 4.93283850312500 7.38183935312500 
 S -5.58377685625000 0.747572503125001 6.34212635312500 
 S -5.44820585625000 4.66002150312500 5.95057935312500 
 S -2.79423385625000 1.11035450312500 3.24186035312500 
 S -2.68689485625000 5.24248450312500 3.00460735312500 
 S -3.06228885625000 1.63683650312500 7.23528535312500 
 S -2.99625385625000 5.39633750312500 7.23564835312500 
