16

 C -3.01467823125000 1.26849055000000 5.65715366562500 
 C -3.03045223125000 5.19615255000000 5.35786466562500 
 C -4.18138023125000 0.789709550000001 4.94637266562500 
 C -4.10474723125000 4.28108155000000 4.95609166562500 
 N -1.99467323125000 1.40959355000000 4.83670166562500 
 N -1.99986623125000 5.23429855000000 4.52962166562500 
 N -4.08419523125000 0.619107550000002 3.64787866562500 
 N -3.95948823125000 3.82573755000000 3.72412266562500 
 N -4.76637723125000 0.934569550000002 7.53348466562500 
 N -4.82810923125000 5.18386555000000 7.27988466562500 
 S -5.57373623125000 0.717376550000002 6.04312766562500 
 S -5.39276923125000 4.18831555000000 6.11144466562500 
 S -2.44119423125000 1.00554755000000 3.31453666562500 
 S -2.50512023125000 4.42279255000000 3.16383666562500 
 S -3.21400823125000 1.61759655000000 7.42533166562500 
 S -3.30553923125000 5.72271455000000 7.01002966562500 
