16

 C -2.93920514062500 1.22371492500000 5.26557250937500 
 C -2.93170714062500 5.11747592500000 5.57902150937500 
 C -4.07087314062500 0.701940924999999 4.60863450937500 
 C -4.16366614062500 4.52809492500000 5.15720750937500 
 N -1.93446514062500 1.66235492500000 4.47731850937500 
 N -1.99229314062500 5.36209192500000 4.69757550937500 
 N -4.05162714062500 0.656579924999999 3.26439550937500 
 N -4.17055014062500 4.23595192500000 3.85902250937500 
 N -4.74142814062500 0.650996924999999 7.17087350937500 
 N -4.36807214062500 4.93678492500000 7.67660250937500 
 S -5.42215514062500 0.262883925000000 5.70533050937500 
 S -5.34148514062500 4.51542092500000 6.42929650937500 
 S -2.54063814062500 1.31653192500000 2.92180450937500 
 S -2.65870114062500 4.85278192500000 3.29409950937500 
 S -3.18593114062500 1.28355092500000 7.07073750937500 
 S -2.79492314062500 5.27742992500000 7.27541150937500 
