16

 C -3.21528547500000 0.899350503124998 5.52113189687500 
 C -3.23449947500000 4.82979250312500 5.66717989687500 
 C -4.39139847500000 0.643627503124998 4.74063189687500 
 C -4.51837147500000 4.47223250312500 5.05604889687500 
 N -2.22202047500000 1.35522850312500 4.76405189687500 
 N -2.21326147500000 4.92431250312500 4.81629189687500 
 N -4.27467047500000 0.805301503124999 3.44469489687500 
 N -4.45667847500000 4.36589050312500 3.74085589687500 
 N -5.09551447500000 0.544400503124998 7.15201089687500 
 N -4.95103347500000 4.91161150312500 7.57324589687500 
 S -5.74947047500000 0.166264503124998 5.61088289687500 
 S -5.78748847500000 4.33050150312500 6.21236489687500 
 S -2.70400947500000 1.34523350312500 3.17321589687500 
 S -2.89183247500000 4.72720250312500 3.31256789687500 
 S -3.43441747500000 0.791576503124998 7.23367789687500 
 S -3.25908847500000 4.98986350312500 7.42410689687500 
