16

 C -3.09445137500000 1.45073428125000 5.65446212187500 
 C -2.83877037500000 5.23995728125000 5.42448912187500 
 C -4.34353237500000 1.10542328125000 5.04649612187500 
 C -4.14515437500000 4.84712128125000 4.82243312187500 
 N -2.06590237500000 1.50537128125000 4.79055112187500 
 N -1.91676737500000 5.43256828125000 4.51458912187500 
 N -4.30200837500000 1.01741028125000 3.70026512187500 
 N -4.10036937500000 4.78876128125000 3.50866412187500 
 N -4.77578537500000 1.47853228125000 7.54119912187500 
 N -4.65169337500000 4.98439128125000 7.33021712187500 
 S -5.62605037500000 0.868296281250004 6.30336512187500 
 S -5.46103837500000 4.55861528125000 5.89331412187500 
 S -2.72957737500000 1.40277828125000 3.32437812187500 
 S -2.53566037500000 5.17314628125000 3.02645912187500 
 S -3.14296637500000 1.73911728125000 7.34266012187500 
 S -3.04782937500000 5.44668928125000 7.22514412187500 
