16

 C -3.14241425312500 1.53591822187500 5.40903949375000 
 C -3.09218425312500 5.30574322187500 5.72114749375000 
 C -4.28454225312500 0.962410221875003 4.73362449375000 
 C -4.34149725312500 4.91299522187500 5.16786149375000 
 N -2.25578725312500 1.91607622187500 4.55737349375000 
 N -2.05627425312500 5.44736022187500 4.90125449375000 
 N -4.30877725312500 0.855272221875002 3.42451249375000 
 N -4.29640625312500 4.87015422187500 3.80978649375000 
 N -4.91573425312500 0.870465221875002 7.21206049375000 
 N -4.58751525312500 4.96467022187500 7.88369949375000 
 S -5.49225625312500 0.307732221875002 5.77539249375000 
 S -5.48289225312500 4.75978522187500 6.47447749375000 
 S -2.75415625312500 1.37283622187500 3.02567149375000 
 S -2.65580725312500 5.18693722187500 3.41660449375000 
 S -3.46502625312500 1.60440822187500 7.22332849375000 
 S -3.02069125312500 5.45752822187500 7.40103549375000 
