16

 C -3.25723202187500 1.08490404687500 5.21256505312500 
 C -3.20703402187500 5.01703604687500 5.57139305312500 
 C -4.55991602187500 0.813856046875002 4.66301505312500 
 C -4.45539002187500 4.61682504687500 5.03133805312500 
 N -2.23695602187500 1.13511604687500 4.35459805312500 
 N -2.30018902187500 5.19835204687500 4.61667705312500 
 N -4.52933602187500 0.725761046875001 3.33102005312500 
 N -4.52218902187500 4.57092004687500 3.71787905312500 
 N -4.80190202187500 1.52371504687500 7.09607305312500 
 N -4.92940002187500 4.90356704687500 7.53630905312500 
 S -5.72328402187500 0.862154046875001 5.91719805312500 
 S -5.74574702187500 4.43856304687500 6.14456805312500 
 S -2.87219402187500 0.846137046875001 2.87125405312500 
 S -3.00472302187500 4.97346504687500 3.10331805312500 
 S -3.19654502187500 1.68000304687500 6.82163605312500 
 S -3.23142902187500 5.25421104687500 7.36861605312500 
