16

 C -3.27430569062500 1.36109392812500 5.53020834375000 
 C -3.27545369062500 5.03883992812500 5.45151834375000 
 C -4.56262369062500 1.05861592812500 4.89876334375000 
 C -4.52997669062500 4.68560592812500 4.82613634375000 
 N -2.22295169062500 1.52831692812500 4.68491634375000 
 N -2.26531169062500 5.30219292812500 4.62186634375000 
 N -4.46839969062500 0.903817928125000 3.55643434375000 
 N -4.40545469062500 4.50861092812500 3.52342634375000 
 N -5.00493969062500 1.10679092812500 7.50666934375000 
 N -4.96096169062500 4.78466592812500 7.35189634375000 
 S -5.83145069062500 0.773952928125000 6.10199434375000 
 S -5.75705969062500 4.44328392812500 5.92975134375000 
 S -2.87432169062500 1.15826192812500 3.18812034375000 
 S -2.86021569062500 4.93369492812500 3.10045534375000 
 S -3.38893469062500 1.45303792812500 7.26381334375000 
 S -3.32848869062500 5.14305392812500 7.20703234375000 
