16

 C -3.07859199062501 1.28392878437500 5.73031893437500 
 C -3.03563899062501 4.62365678437500 5.40530893437500 
 C -4.39563599062501 0.885176784375001 5.09760793437500 
 C -4.27098199062501 4.17500678437500 4.79786193437500 
 N -2.08408899062501 1.32244778437500 4.85311993437500 
 N -1.96510699062501 4.71024678437500 4.60441993437500 
 N -4.35313499062501 0.697300784375001 3.77316693437500 
 N -4.09482999062501 3.92626578437500 3.49247993437500 
 N -4.84073199062501 1.12649578437500 7.63612593437500 
 N -4.87968199062501 4.73208878437500 7.25301293437500 
 S -5.70669799062501 0.799512784375001 6.23929293437500 
 S -5.60821299062501 4.01524678437500 5.91545193437500 
 S -2.78045699062501 0.949017784375001 3.41344793437500 
 S -2.49062199062501 4.31516378437500 3.11464393437500 
 S -3.21166599062501 1.62758378437500 7.44695093437500 
 S -3.28434499062501 5.02558478437500 7.06198793437500 
