16

 C -3.29459397500000 1.38821360312500 5.55626079062500 
 C -2.94556197500000 5.24047160312500 5.43466579062500 
 C -4.44409197500000 0.685331603124999 5.03110379062500 
 C -4.19348497500000 4.92349660312500 4.80443579062500 
 N -2.29540497500000 1.62950160312500 4.71996479062500 
 N -1.91052497500000 5.38177060312500 4.65019479062500 
 N -4.32096197500000 0.436214603124999 3.74038479062500 
 N -4.11917597500000 4.85647560312500 3.50915879062500 
 N -5.07494797500000 1.25289160312500 7.37492179062500 
 N -4.67943697500000 5.12284660312500 7.36480179062500 
 S -5.65838697500000 0.347016603125000 6.16147779062500 
 S -5.47968497500000 4.68717260312500 5.98496879062500 
 S -2.84146897500000 1.02952160312500 3.22380579062500 
 S -2.55670797500000 5.09554460312500 3.05497879062500 
 S -3.55859797500000 1.85255660312500 7.19027879062500 
 S -3.08139397500000 5.39272960312500 7.15545079062500 
