16

 C -3.16817711250000 0.840235775000004 5.66326185625000 
 C -3.05351411250000 5.16128877500000 5.39886185625000 
 C -4.37846611250000 0.611306775000004 4.85475485625000 
 C -4.19891411250000 4.59884277500000 4.75620085625000 
 N -2.08042211250000 0.954397775000004 4.91572685625000 
 N -1.95038511250000 5.15692877500000 4.61599885625000 
 N -4.21060211250000 0.751047775000004 3.55288685625000 
 N -4.09701011250000 4.43558777500000 3.43675185625000 
 N -5.09251411250000 0.603117775000004 7.37868785625000 
 N -4.93153011250000 4.72725177500000 7.21367785625000 
 S -5.75531011250000 0.373598775000003 5.87641285625000 
 S -5.54597811250000 4.16567877500000 5.77200585625000 
 S -2.54643811250000 0.919178775000003 3.27841885625000 
 S -2.51587011250000 4.63949277500000 3.04517485625000 
 S -3.49222411250000 0.951834775000004 7.36335685625000 
 S -3.31413511250000 5.27800877500000 7.12686085625000 
