16

 C -3.08296979375000 1.64424904687500 5.45391485625000 
 C -3.01106179375000 5.27153904687500 5.49383785625000 
 C -4.33017079375000 1.41953304687500 4.78142985625000 
 C -4.26749879375000 4.95729104687500 4.86674685625000 
 N -2.09921179375000 1.72746104687500 4.56830385625000 
 N -2.01652679375000 5.46169504687500 4.63400085625000 
 N -4.26003979375000 1.16287904687500 3.48329785625000 
 N -4.20985179375000 4.81359804687500 3.54039985625000 
 N -4.89324779375000 1.30250604687500 7.32763185625000 
 N -4.74811679375000 4.95079904687500 7.39559185625000 
 S -5.70016479375000 1.21875904687500 5.84182585625000 
 S -5.60079579375000 4.84814304687500 5.93560385625000 
 S -2.63439379375000 1.50637104687500 3.02071785625000 
 S -2.64895779375000 5.24219204687500 3.11416285625000 
 S -3.28197779375000 1.57294204687500 7.20635785625000 
 S -3.08463779375000 5.15679404687500 7.23880785625000 
