16

 C -3.20704534375000 1.49166733749999 5.40769737500000 
 C -3.02698834375000 5.31000233749999 5.70317637500000 
 C -4.32827334375000 0.884641337499994 4.72628037500000 
 C -4.31448834375000 5.01163433749999 5.09677837500000 
 N -2.18025634375000 1.78777533749999 4.52237737500000 
 N -2.01264734375000 5.37190833749999 4.84399337500000 
 N -4.24020534375000 0.892655337499994 3.37621637500000 
 N -4.32301134375000 4.88725533749999 3.77124537500000 
 N -4.90027734375000 0.806597337499994 7.22460837500000 
 N -4.56287934375000 4.91646333749999 7.73346937500000 
 S -5.50208034375000 0.285470337499994 5.78000037500000 
 S -5.47937734375000 4.79891533749999 6.41996037500000 
 S -2.74980234375000 1.38697633749999 3.00705337500000 
 S -2.71509034375000 5.15847633749999 3.35756537500000 
 S -3.45901134375000 1.59882233749999 7.16174137500000 
 S -3.00951634375000 5.47114733749999 7.44366737500000 
