16

 C -2.98872172500000 1.11781857812499 5.72464240937500 
 C -2.86568672500000 4.70433657812499 5.46738840937500 
 C -4.35423572500000 0.969308578124991 5.22883140937500 
 C -4.11476972500000 4.45558057812499 4.79864240937500 
 N -2.09805072500000 0.979428578124992 4.80804840937500 
 N -1.90110372500000 4.89124957812499 4.61417540937500 
 N -4.50463872500000 0.626220578124991 3.94714240937500 
 N -4.05498672500000 4.30106557812499 3.47669340937500 
 N -4.48190172500000 1.74541957812499 7.68710440937500 
 N -4.70840872500000 4.83718157812499 7.28826240937500 
 S -5.51024872500000 1.43482757812499 6.48499140937500 
 S -5.48371372500000 4.60622157812499 5.82250340937500 
 S -2.83730272500000 0.544282578124992 3.37824040937500 
 S -2.43901272500000 4.64372257812499 3.08104240937500 
 S -2.89505272500000 1.63264357812499 7.40070740937500 
 S -2.96766472500000 4.79211657812499 7.15285540937500 
