16

 C -3.30630512812500 1.51803616875000 5.34728106875000 
 C -3.34720112812500 5.37570016875000 5.44450406875000 
 C -4.42414912812500 0.784555168749995 4.85749206875000 
 C -4.52772812812500 4.81303916875000 4.80274706875000 
 N -2.29176012812500 1.69572216875000 4.49785506875000 
 N -2.32605912812500 5.60070716875000 4.59650006875000 
 N -4.37508912812500 0.507465168749995 3.53821906875000 
 N -4.46103312812500 4.72011616875000 3.48795406875000 
 N -4.83267612812500 1.16194616875000 7.43560606875000 
 N -5.05138212812500 4.70758516875000 7.30643806875000 
 S -5.63253512812500 0.483781168749996 6.13407006875000 
 S -5.72004312812500 4.16776816875000 5.83846406875000 
 S -2.92916312812500 1.08966016875000 3.02293706875000 
 S -2.95948612812500 5.26971116875000 3.07925406875000 
 S -3.39292012812500 1.93773016875000 7.09955906875000 
 S -3.55441912812500 5.49970916874999 7.20479006875000 
