16

 C -3.29996129375000 1.41599815625000 5.29881977812500 
 C -3.17098429375000 5.38603615625000 5.53280777812500 
 C -4.42366429375000 0.868168156250001 4.68155577812500 
 C -4.34980229375000 4.72005415625000 4.96189977812500 
 N -2.30435729375000 1.83768615625000 4.50339677812500 
 N -2.25432429375000 5.67959415625000 4.62626177812500 
 N -4.32251329375000 0.813982156250001 3.34804477812500 
 N -4.28837029375000 4.49464115625000 3.66232877812500 
 N -4.85519229375000 0.856534156250000 7.30297377812500 
 N -4.90082229375000 4.92774815625000 7.44592877812500 
 S -5.64194129375000 0.451584156250001 5.87003077812500 
 S -5.70733529375000 4.51817715625000 6.04394277812500 
 S -2.87328429375000 1.48266915625000 2.95488477812500 
 S -2.91294929375000 5.16914915625000 3.14526577812500 
 S -3.33157729375000 1.50891815625000 7.03179977812500 
 S -3.32410729375000 5.43683815625000 7.30348877812500 
