16

 C -3.36876528437500 1.41484524687499 5.39807710000000 
 C -3.17090828437500 4.92524324687500 4.96839210000000 
 C -4.42782128437500 0.625336246874996 4.79480510000000 
 C -4.35553628437500 4.44746524687500 4.27453310000000 
 N -2.42234828437500 1.88006324687499 4.54778210000000 
 N -2.12834728437500 5.17329624687500 4.17798510000000 
 N -4.23487528437500 0.273948246874996 3.52747410000000 
 N -4.24233228437500 4.46268624687499 2.97506510000000 
 N -5.14147728437500 0.782885246874995 7.26591910000000 
 N -4.87024728437500 4.53661824687500 6.85206010000000 
 S -5.77953228437500 0.210078246874995 5.83372310000000 
 S -5.52788428437500 3.88392224687500 5.45708610000000 
 S -2.89219028437500 1.16268224687500 3.11303510000000 
 S -2.62470928437500 4.95876024687499 2.67888710000000 
 S -3.59737728437500 1.43876524687500 7.19960310000000 
 S -3.39828328437500 5.20104724687500 6.63667310000000 
