16

 C -2.99029338750000 1.29716950624999 5.65255102187500 
 C -3.09502638750000 5.06558950624999 5.54073302187500 
 C -4.23917338750000 0.793284506249995 4.97932202187500 
 C -4.23659038750000 4.42728350624999 4.91273102187500 
 N -1.94083938750000 1.33108950624999 4.80097102187500 
 N -2.07308438750000 5.24521250624999 4.70824602187500 
 N -4.10087038750000 0.339580506249995 3.70773002187500 
 N -4.02214338750000 3.98631450624999 3.67684602187500 
 N -4.82129238750000 1.21426750624999 7.45362002187500 
 N -4.84752938750000 4.87933950624999 7.46761002187500 
 S -5.56435438750000 0.682218506249995 6.05795202187500 
 S -5.60701638750000 4.35995550625000 6.05873802187500 
 S -2.54104638750000 0.720170506249994 3.39002402187500 
 S -2.43818738750000 4.51825050624999 3.28009802187500 
 S -3.24532238750000 1.62215350624999 7.33721802187500 
 S -3.28791238750000 5.34937750624999 7.24380102187500 
