16

 C -2.93800745625000 1.51219020312500 5.35042118437500 
 C -3.31398245625000 5.25556020312500 5.92168718437500 
 C -4.16735745625000 1.02124820312500 4.71809118437500 
 C -4.44173145625000 4.87628220312500 5.18189518437500 
 N -1.91888245625000 1.54071120312500 4.48959218437500 
 N -2.21088245625000 5.46380220312500 5.21986618437500 
 N -4.04250745625000 0.806009203125002 3.43320818437500 
 N -4.20974545625000 4.74307720312500 3.88675718437500 
 N -4.84142345625000 1.28106320312500 7.14425118437500 
 N -5.04083745625000 5.06299020312500 7.69843318437500 
 S -5.49220945625000 0.681879203125002 5.72073918437500 
 S -5.78950545625000 4.79281220312500 6.29704118437500 
 S -2.56248445625000 1.19595520312500 2.98745818437500 
 S -2.54972845625000 5.13015120312500 3.68975918437500 
 S -3.26807745625000 1.77429020312500 7.11862518437500 
 S -3.47288945625000 5.52117820312500 7.58607418437500 
