16

 C -2.96302730937500 1.27114742812500 5.39205653125000 
 C -2.90012930937500 5.11807942812500 5.67933653125000 
 C -4.09397230937500 0.713871428124998 4.71019553125000 
 C -4.15054530937500 4.69065942812500 5.17214953125000 
 N -1.88483530937500 1.35610742812500 4.62863653125000 
 N -1.91428430937500 5.15902042812500 4.79102853125000 
 N -3.88256430937500 0.576565428124997 3.41820653125000 
 N -4.15108530937500 4.54034842812500 3.86798053125000 
 N -4.79807530937500 0.908769428124997 7.22017953125000 
 N -4.44712630937500 4.81063142812500 7.68407153125000 
 S -5.42886930937500 0.405898428124997 5.73850753125000 
 S -5.28917530937500 4.26627942812500 6.34119253125000 
 S -2.27921530937500 0.918637428124997 3.08848753125000 
 S -2.66211430937500 4.84293742812500 3.34916553125000 
 S -3.26181630937500 1.54342242812500 7.08539353125000 
 S -2.91529330937500 5.36107842812500 7.38169853125000 
