16

 C -3.22928535000000 1.28007402187500 5.57156006875000 
 C -3.28612535000000 5.07038602187500 5.40903306875000 
 C -4.46331335000000 1.17557902187500 4.85339006875000 
 C -4.51192635000000 4.68427102187500 4.76201906875000 
 N -2.18469935000000 1.21902202187501 4.80470406875000 
 N -2.19171435000000 4.97131302187500 4.66831806875000 
 N -4.29668935000000 0.861120021875005 3.57129406875000 
 N -4.39655035000000 4.39007202187501 3.47853706875000 
 N -5.01896335000000 1.34146202187501 7.36605706875000 
 N -5.01408335000000 5.02896402187501 7.27114806875000 
 S -5.81981435000000 1.34807802187501 5.90177206875000 
 S -5.78191035000000 4.46203702187500 5.92751306875000 
 S -2.70087435000000 0.953259021875005 3.22229006875000 
 S -2.79205135000000 4.44761402187501 3.13704706875000 
 S -3.35840635000000 1.39682202187501 7.23505506875000 
 S -3.43382535000000 5.58551402187501 7.08424206875000 
