16

 C -2.93638713750000 1.52895528437500 5.34257336250000 
 C -3.28739213750000 5.28355728437500 5.90601036250000 
 C -4.16628113750000 1.03790428437500 4.71860436250000 
 C -4.44570213750000 4.87338428437500 5.16535536250000 
 N -1.91055813750000 1.53162728437500 4.48532136250000 
 N -2.21499313750000 5.47538028437500 5.20032436250000 
 N -4.05901713750000 0.781064284375000 3.42256636250000 
 N -4.21930713750000 4.73066628437500 3.88241336250000 
 N -4.84066013750000 1.29778828437500 7.13121636250000 
 N -5.05434513750000 5.07166628437500 7.69796336250000 
 S -5.49159813750000 0.685388284375000 5.72573936250000 
 S -5.79197913750000 4.77918828437500 6.28441736250000 
 S -2.55688713750000 1.18077028437500 2.99663936250000 
 S -2.54532913750000 5.12396828437500 3.68468436250000 
 S -3.27068113750000 1.78336028437500 7.11679936250000 
 S -3.47266013750000 5.51646028437500 7.58264736250000 
