16

 C -3.11406484687500 1.06639134375000 5.56470280312500 
 C -3.50761384687500 5.04866234375000 5.14442680312500 
 C -4.36893984687500 0.677837343750002 4.94671980312500 
 C -4.54813684687500 4.24494834375000 4.57964380312500 
 N -2.12601084687500 1.29768834375000 4.72952580312500 
 N -2.52614684687500 5.23081734375000 4.26341080312500 
 N -4.32488184687500 0.578242343750002 3.62168780312500 
 N -4.44636384687500 3.94250734375000 3.26712680312500 
 N -4.81996684687500 0.766675343750002 7.52293380312500 
 N -5.27569984687500 4.79942534375000 7.00810380312500 
 S -5.73173984687500 0.573641343750002 6.14337680312500 
 S -5.85194584687500 3.93560734375000 5.64057680312500 
 S -2.80150684687500 1.11403234375000 3.22204280312500 
 S -2.98261984687500 4.55634134375000 2.83896580312500 
 S -3.14916684687500 1.04648234375000 7.34652680312500 
 S -3.65901684687500 5.19977934375000 6.90650380312500 
