16

 C -2.88043965000000 1.57418370312500 5.45523057500000 
 C -3.47563165000000 5.11838370312500 5.17427657500000 
 C -4.01866565000000 0.983558703124999 4.71381057500000 
 C -4.56935065000000 4.30255770312500 4.65013657500000 
 N -1.82230765000000 1.66516170312500 4.64858757500000 
 N -2.36796465000000 5.13334670312500 4.45868457500000 
 N -3.91862965000000 0.875692703125000 3.41133357500000 
 N -4.37971765000000 3.96543470312500 3.37823757500000 
 N -4.79256765000000 1.42924070312500 7.19955357500000 
 N -5.34172865000000 5.11584970312500 6.90895257500000 
 S -5.38496465000000 0.792069703125000 5.79184357500000 
 S -5.95476465000000 4.08917770312500 5.77254257500000 
 S -2.33793465000000 1.11487570312500 3.14956657500000 
 S -2.76275965000000 4.40576970312500 3.00629757500000 
 S -3.24629365000000 2.02203070312500 7.05725857500000 
 S -3.85771365000000 5.73939770312500 6.71705857500000 
