16

 C -3.07219748437500 1.39949722187499 5.45957220937500 
 C -2.92586548437500 5.17040222187499 5.47745420937500 
 C -4.20377348437500 0.856126221874994 4.78105920937500 
 C -4.20805548437500 4.89820122187499 4.88795020937500 
 N -1.95654348437500 1.60299022187499 4.72372820937500 
 N -1.93978748437500 5.28308922187499 4.62077520937500 
 N -3.94119948437500 0.603920221874994 3.49788120937500 
 N -4.13859148437500 4.67329822187499 3.60931320937500 
 N -4.98074648437500 1.14259122187499 7.16581920937500 
 N -4.64311348437500 5.10084022187499 7.38134320937500 
 S -5.60120848437500 0.600041221874993 5.70501720937500 
 S -5.54245248437500 5.00809822187499 5.99460020937500 
 S -2.37799948437500 1.09666522187499 3.15004520937500 
 S -2.59263548437500 4.90466122187499 3.10482320937500 
 S -3.32863648437500 1.33269622187499 7.19085420937500 
 S -3.05008748437500 5.40944222187499 7.16381920937500 
