16

 C -3.41617749375000 1.24131836250000 5.29795930312500 
 C -3.16605349375000 5.12329436250000 5.35264130312500 
 C -4.60517849375000 0.709317362500005 4.65073030312500 
 C -4.39659649375000 4.71313436250000 4.81879730312500 
 N -2.39656349375000 1.44819836250000 4.49596230312500 
 N -2.19054349375000 5.13851936250000 4.41397730312500 
 N -4.40232449375000 0.408071362500004 3.36761030312500 
 N -4.40224149375000 4.35673536250000 3.54090530312500 
 N -5.04435149375000 0.889859362500004 7.22719930312500 
 N -4.87629649375000 4.77366436250000 7.22951530312500 
 S -5.97603849375000 0.731651362500004 5.78988230312500 
 S -5.71644649375000 4.70770236250000 5.86651030312500 
 S -2.76366249375000 0.795540362500005 3.02056730312500 
 S -2.89215649375000 4.58037736250000 2.94721030312500 
 S -3.42381749375000 1.44778636250000 6.94351530312500 
 S -3.31550549375000 5.43063236250000 7.11823030312500 
