16

 C -3.25604621562500 1.08597919062499 5.23044785000000 
 C -3.17569921562500 5.03184519062500 5.57072485000000 
 C -4.54637921562500 0.825538190624995 4.66028485000000 
 C -4.44287421562500 4.62179819062499 5.05471085000000 
 N -2.24258521562500 1.12820619062500 4.38768485000000 
 N -2.28730621562500 5.20719519062500 4.64520785000000 
 N -4.51762721562500 0.707798190624995 3.32020685000000 
 N -4.50921521562500 4.57917719062499 3.74713085000000 
 N -4.79840321562500 1.56476319062499 7.13338085000000 
 N -4.94528621562500 4.89466719062500 7.50819585000000 
 S -5.70834321562500 0.875523190624994 5.92728885000000 
 S -5.72438521562500 4.44025619062499 6.15130485000000 
 S -2.85926721562500 0.858018190624994 2.87839485000000 
 S -3.01645521562500 4.97653519062500 3.10674285000000 
 S -3.19282421562500 1.68491719062500 6.79423785000000 
 S -3.24397421562500 5.24968819062500 7.39470485000000 
