16

 C -3.74035201875000 1.19438940312500 5.72802675625000 
 C -3.13070201875000 5.04551140312500 5.33053575625000 
 C -4.84275501875000 0.716724403125000 4.94860075625000 
 C -4.35583401875000 4.46909240312500 4.82050075625000 
 N -2.65506701875000 1.51817340312500 5.08164875625000 
 N -2.12681501875000 5.05228640312500 4.46196075625000 
 N -4.56959201875000 0.655132403125000 3.67099775625000 
 N -4.31842801875000 4.19949340312500 3.50401775625000 
 N -5.59544301875000 0.685353403125000 7.31635275625000 
 N -4.77936001875000 4.97898340312500 7.28666075625000 
 S -6.27618001875000 0.283950403125000 5.83529275625000 
 S -5.59458101875000 4.30617840312500 6.02408775625000 
 S -2.98543401875000 1.16040140312500 3.49320575625000 
 S -2.81333201875000 4.61146440312500 2.97474575625000 
 S -4.06523501875000 1.28780840312500 7.38605775625000 
 S -3.21130901875000 5.51785440312500 7.01080675625000 
