16

 C -3.30579299062500 1.52228594687500 5.59021087812500 
 C -2.99336799062500 5.34506494687500 5.91674187812500 
 C -4.32018499062500 0.849590946875002 4.85139287812500 
 C -4.15319599062500 4.74016894687500 5.34189887812500 
 N -2.37571199062500 2.10461894687500 4.81980687812500 
 N -2.10321599062500 5.60965794687500 4.96719987812500 
 N -4.08919499062500 0.693404946875003 3.54818687812500 
 N -4.15917599062500 4.51597994687500 4.07570687812500 
 N -5.01575999062500 1.11170894687500 7.39162287812500 
 N -4.74489099062500 5.07509094687500 7.88690487812500 
 S -5.66918299062500 0.536569946875002 6.00962387812500 
 S -5.43922399062500 4.58985594687500 6.40266187812500 
 S -2.59196399062500 1.56158094687500 3.27532187812500 
 S -2.77868599062500 5.12107694687500 3.49518187812500 
 S -3.47700399062500 1.73214594687500 7.23876687812500 
 S -3.14991799062500 5.46079194687500 7.66553887812500 
