16

 C -2.96264473125000 1.20465005937500 5.54997043750000 
 C -2.92732373125000 5.08212105937500 5.67309343750000 
 C -4.16472573125000 0.664508059375004 4.84105243750000 
 C -4.13608073125000 4.48306905937500 5.09919743750000 
 N -1.85617073125000 1.38157905937500 4.81051143750000 
 N -1.94136073125000 5.32589405937500 4.80679143750000 
 N -3.88676773125000 0.351971059375004 3.55380543750000 
 N -4.04716873125000 4.15677705937500 3.81311843750000 
 N -4.87827073125000 1.33025005937500 7.23219943750000 
 N -4.71919573125000 4.82976905937500 7.57836743750000 
 S -5.53513973125000 0.615783059375004 5.89357443750000 
 S -5.45180573125000 4.35027705937500 6.17033143750000 
 S -2.31748973125000 0.810266059375004 3.30466043750000 
 S -2.57275273125000 4.79160605937500 3.34234043750000 
 S -3.23852773125000 1.62948505937500 7.20849943750000 
 S -3.13820473125000 5.37071305937500 7.37090243750000 
