16

 C -3.23767797187500 0.873422518750000 5.44795980000000 
 C -3.21109197187500 4.95120151875000 5.70258080000000 
 C -4.47620697187500 0.633807518750000 4.72982780000000 
 C -4.47985697187500 4.57568051875000 5.09331780000000 
 N -2.20887297187500 1.25212751875000 4.70979180000000 
 N -2.20039397187500 5.25258351875000 4.85105880000000 
 N -4.31366997187500 0.758420518749999 3.39964280000000 
 N -4.36480797187500 4.37859851875000 3.76178480000000 
 N -5.11024897187500 0.642083518750000 7.29882480000000 
 N -4.94577197187500 4.82745851875000 7.60814180000000 
 S -5.83241397187500 0.301780518750000 5.85991780000000 
 S -5.71261197187500 4.20239551875000 6.27033180000000 
 S -2.73142497187500 1.28575851875000 3.15112880000000 
 S -2.78927797187500 4.77242251875000 3.37310580000000 
 S -3.47433297187500 0.798236518750000 7.12837580000000 
 S -3.34766697187500 5.07700951875000 7.43553780000000 
