16

 C -3.12269702812500 1.65236344999999 5.48195995000000 
 C -3.01324902812500 5.30124944999999 5.49872895000000 
 C -4.30944902812500 1.20185845000000 4.82308795000000 
 C -4.25638702812500 4.94590445000000 4.86530795000000 
 N -2.10267602812500 1.84277245000000 4.69419795000000 
 N -1.99394202812500 5.46632545000000 4.64792795000000 
 N -4.19135402812500 1.12436144999999 3.51509995000000 
 N -4.22468902812500 4.85441244999999 3.54299695000000 
 N -4.78050202812500 1.34933645000000 7.29216395000000 
 N -4.77379902812500 4.97855645000000 7.41173195000000 
 S -5.67273902812500 1.08967445000000 5.88820295000000 
 S -5.59098702812500 4.93074044999999 5.93459495000000 
 S -2.52017702812500 1.38769144999999 3.17550895000000 
 S -2.60189302812500 5.13043745000000 3.10388095000000 
 S -3.16515602812500 1.65791744999999 7.12577295000000 
 S -3.15265502812500 5.36345645000000 7.23882595000000 
