16

 C -3.40908610625000 1.64024132500000 5.44066193750000 
 C -3.11571010625000 5.71332332500000 5.59540593750000 
 C -4.53257810625000 0.968771325000000 4.76231093750000 
 C -4.19053210625000 4.91289832500000 4.98160793750000 
 N -2.30936010625000 1.70924732500000 4.68878093750000 
 N -2.14517510625000 6.07123232500000 4.76805293750000 
 N -4.24720010625000 0.495709325000000 3.55980593750000 
 N -4.05066610625000 4.76208532500000 3.70641593750000 
 N -5.16381610625000 1.15981732500000 7.30073293750000 
 N -4.79978010625000 5.12655532500000 7.46055093750000 
 S -5.85813310625000 0.779195325000000 5.84147493750000 
 S -5.52522310625000 4.56813332500000 6.05418693750000 
 S -2.69728810625000 1.01320832500000 3.28301793750000 
 S -2.60315910625000 5.53600132500000 3.25536293750000 
 S -3.56530910625000 1.60291732500000 7.15843393750000 
 S -3.28582910625000 5.68423332500000 7.37123693750000 
