16

 C -3.13865940625000 1.28480392500000 5.57950609375000 
 C -3.64196940625000 4.99037592500000 5.04876209375000 
 C -4.37629740625000 0.743845925000000 5.03153409375000 
 C -4.69086340625000 4.17468592500000 4.48444109375000 
 N -2.12090440625000 1.46130692500000 4.67282309375000 
 N -2.61487440625000 5.21863592500000 4.23639209375000 
 N -4.37478140625000 0.649543925000001 3.67976109375000 
 N -4.51372640625000 3.96804292500000 3.18200109375000 
 N -4.74301540625000 0.802236925000001 7.56229509375000 
 N -5.27535540625000 4.62167992500000 6.94082509375000 
 S -5.61305140625000 0.520873925000001 6.21252309375000 
 S -6.01523240625000 3.82708992500000 5.67059109375000 
 S -2.82827340625000 1.06199092500000 3.23075609375000 
 S -3.02889340625000 4.57577692500000 2.78216209375000 
 S -3.23704440625000 1.42867692500000 7.29251909375000 
 S -3.77947340625000 5.22748992500000 6.72858209375000 
