16

 C -2.99554444687500 1.74369813437500 5.46476127187500 
 C -3.12421844687500 5.22566613437500 5.67114327187500 
 C -4.29096344687500 1.38538313437500 4.88122227187500 
 C -4.28774844687500 4.79696313437500 4.91201627187500 
 N -2.02814144687500 1.91002613437500 4.55890127187500 
 N -2.08261344687500 5.53098413437500 4.90704327187500 
 N -4.26146044687500 1.15177213437500 3.58429727187500 
 N -4.05761844687500 4.59575913437500 3.61331627187500 
 N -4.56517044687500 1.27424513437500 7.46176327187500 
 N -4.84287144687500 4.77415713437500 7.46531327187500 
 S -5.54489644687500 1.25045513437500 6.16900527187500 
 S -5.62027344687500 4.53748113437500 6.00251727187500 
 S -2.72307444687500 1.39612313437500 3.11305727187500 
 S -2.47476244687500 5.12077713437500 3.34814827187500 
 S -2.97027844687500 1.65236813437500 7.19540327187500 
 S -3.26548344687500 5.31447913437500 7.40146427187500 
