16

 C -2.99303720000000 1.15317285937500 5.67863744375000 
 C -3.09194520000000 4.86421085937500 5.50207744375000 
 C -4.11956420000000 0.494817859375003 5.01733144375000 
 C -4.35444720000000 4.48673185937500 4.88672844375000 
 N -2.02459620000000 1.51809085937500 4.83228044375000 
 N -2.08007220000000 5.01597085937500 4.65557644375000 
 N -3.96289620000000 0.248632859375003 3.71132044375000 
 N -4.21530020000000 4.16419085937500 3.60356544375000 
 N -4.86710220000000 0.960029859375004 7.45676044375000 
 N -4.91272020000000 5.13773885937500 7.22458744375000 
 S -5.48347320000000 0.311816859375003 6.03672044375000 
 S -5.67421320000000 4.31460085937500 5.98007244375000 
 S -2.50692520000000 0.887274859375003 3.37416444375000 
 S -2.68502220000000 4.55507385937500 3.16400244375000 
 S -3.33338320000000 1.58086485937500 7.38086144375000 
 S -3.27957220000000 5.17690385937500 7.16021944375000 
