16

 C -3.26958056250000 1.43441003750000 5.36220727812500 
 C -3.24013056250000 5.36464803750000 5.55396727812500 
 C -4.46779256250000 0.872568037500002 4.70188427812500 
 C -4.38910056250000 4.72795003750000 4.95311927812500 
 N -2.39045856250000 1.79868103750000 4.46958227812500 
 N -2.33064856250000 5.71282103750000 4.62765527812500 
 N -4.29860756250000 0.746741037500002 3.38105027812500 
 N -4.27578656250000 4.49149003750000 3.65061027812500 
 N -4.87187156250000 0.949601037500002 7.29799427812500 
 N -4.93120456250000 4.91810703750000 7.39673527812500 
 S -5.64975456250000 0.458484037500002 5.92147627812500 
 S -5.72957056250000 4.49342403750000 6.00603327812500 
 S -2.84928556250000 1.46586403750000 2.93379827812500 
 S -2.93024556250000 5.21985703750000 3.15278127812500 
 S -3.34541256250000 1.54010403750000 7.04948627812500 
 S -3.31627856250000 5.42068703750000 7.28940927812500 
