16

 C -3.15263506562500 1.28553126562500 5.68856485000000 
 C -3.46684906562500 5.30953026562500 5.38058385000000 
 C -4.25373906562500 0.576888265625001 5.02207685000000 
 C -4.46320506562500 4.46801626562500 4.82404185000000 
 N -2.22169106562500 1.62509726562500 4.85766885000000 
 N -2.42968706562500 5.60604526562500 4.59881685000000 
 N -4.16743406562500 0.472698265625001 3.69150685000000 
 N -4.23237406562500 4.11671726562500 3.55632385000000 
 N -4.83623606562500 0.854122265625000 7.50518385000000 
 N -5.24824906562500 4.99604726562500 7.25083485000000 
 S -5.59624606562500 0.298980265625000 6.13408285000000 
 S -5.80762106562500 4.13557826562500 5.89046485000000 
 S -2.62098006562500 1.09587526562500 3.38108885000000 
 S -2.78014406562500 4.86092826562500 3.16758685000000 
 S -3.34246106562500 1.66247826562500 7.37993985000000 
 S -3.78701706562500 5.74460426562500 6.99220685000000 
