16

 C -3.28882901562500 1.04121815312500 5.63609894375000 
 C -2.84464201562500 4.95205715312500 5.51569694375000 
 C -4.42007301562500 0.569109153124997 4.89619394375000 
 C -4.05965101562500 4.49131915312500 4.85043994375000 
 N -2.25444701562500 1.37572415312500 4.89269794375000 
 N -1.89109101562500 5.33048315312500 4.64708394375000 
 N -4.21799401562500 0.379054153124998 3.59325694375000 
 N -3.88540901562500 4.26220815312500 3.54738794375000 
 N -5.15531001562500 0.753168153124998 7.48584094375000 
 N -4.67414101562500 4.71240515312500 7.31367894375000 
 S -5.84807801562500 0.353249153124998 6.00403694375000 
 S -5.47489101562500 4.36255115312500 5.94931094375000 
 S -2.63065701562500 0.889079153124998 3.35018594375000 
 S -2.39434401562500 4.91473615312500 3.15529794375000 
 S -3.54367001562500 1.04517015312500 7.44912094375000 
 S -3.12539301562500 5.19246715312500 7.23088894375000 
