16

 C -3.08173962187500 1.53932318750000 5.52844165000000 
 C -2.89844962187500 4.83154818750000 5.38979565000000 
 C -4.30614562187500 1.11361518750000 4.88802065000000 
 C -4.19510462187500 4.75432318750000 4.75305265000000 
 N -2.09101362187500 1.59203718750000 4.63647365000000 
 N -1.90737962187500 4.84775418750000 4.52326165000000 
 N -4.22925462187500 0.794185187500001 3.63947965000000 
 N -4.17946962187500 4.42643918750000 3.47342565000000 
 N -4.88598762187500 1.38131218750000 7.40859865000000 
 N -4.68707962187500 5.18544018750000 7.26060965000000 
 S -5.63256062187500 0.840152187500001 5.99843665000000 
 S -5.56816762187500 4.94109918750000 5.90099465000000 
 S -2.66941862187500 1.15303718750000 3.14744165000000 
 S -2.61889562187500 4.45818918750000 3.00508665000000 
 S -3.25041262187500 1.84454618750000 7.21161065000000 
 S -3.07694762187500 5.30055618750000 7.05260165000000 
