16

 C -3.22006627812500 1.45278545312500 5.37704364375000 
 C -3.33625027812500 5.27087545312500 5.39324164375000 
 C -4.41539927812500 0.773366453124998 4.90202064375000 
 C -4.50417227812500 4.68473745312500 4.76125064375000 
 N -2.29509127812500 1.71720545312500 4.47450564375000 
 N -2.35640527812500 5.62276845312500 4.55825464375000 
 N -4.40503427812500 0.422854453124999 3.63017064375000 
 N -4.42952727812500 4.62479445312500 3.42421064375000 
 N -4.71606027812500 1.16016545312500 7.44077864375000 
 N -5.05995627812500 4.72771645312500 7.22675564375000 
 S -5.60190927812500 0.511967453124998 6.19487564375000 
 S -5.70113427812500 4.11744645312500 5.80557664375000 
 S -2.88379727812500 1.01017145312500 3.11175864375000 
 S -2.86194927812500 5.17611245312500 3.01568964375000 
 S -3.34692427812500 1.96527045312500 7.02045364375000 
 S -3.65520927812500 5.53344345312500 7.08700264375000 
