16

 C -3.28933887812500 1.41759629687500 5.65625864687500 
 C -3.57526987812500 5.24535729687500 5.50446764687500 
 C -4.50302687812500 0.899972296874997 4.99572164687500 
 C -4.69264487812500 4.64312329687500 4.87476464687500 
 N -2.37327387812500 1.81757229687500 4.84027364687500 
 N -2.54791487812500 5.60296029687500 4.72747664687500 
 N -4.36997487812500 0.810098296874997 3.66709664687500 
 N -4.44097687812500 4.42945729687500 3.58761764687500 
 N -4.89194687812500 1.01310129687500 7.56524264687500 
 N -5.29990187812500 4.89441529687500 7.32018564687500 
 S -5.72733687812500 0.567773296874997 6.13930764687500 
 S -5.91469387812500 4.16795729687500 5.97571164687500 
 S -2.87485787812500 1.33482029687500 3.31056364687500 
 S -2.96597387812500 5.11072629687500 3.24235464687500 
 S -3.27685687812500 1.55695229687500 7.38874764687500 
 S -3.79258187812500 5.53337929687500 7.23036664687500 
