16

 C -3.11054173437500 1.37541440625000 5.54116645000000 
 C -3.51148173437500 5.14389940625000 5.52648745000000 
 C -4.33158973437500 0.934850406250001 4.85097745000000 
 C -4.66053473437500 4.44682040625000 4.94073245000000 
 N -2.08569173437500 1.77781540625000 4.75736545000000 
 N -2.53594373437500 5.33236940625000 4.67148745000000 
 N -4.18528373437500 0.913033406250001 3.51994045000000 
 N -4.60446573437500 4.25765440625000 3.62507445000000 
 N -4.99898773437500 1.12647140625000 7.33663945000000 
 N -5.15149573437500 4.82959040625000 7.41744745000000 
 S -5.69815473437500 0.717975406250001 5.86453745000000 
 S -5.91083673437500 4.16804340625000 6.05245745000000 
 S -2.65804173437500 1.48851440625000 3.21651345000000 
 S -3.12456373437500 4.89788740625000 3.19887545000000 
 S -3.43804873437500 1.67626940625000 7.18761845000000 
 S -3.59506173437500 5.37086040625000 7.24339045000000 
