16

 C -3.08665886562500 1.47391625000000 5.33796450312500 
 C -3.19968686562500 5.24114625000000 5.67981750312500 
 C -4.23746686562500 0.678731249999996 4.89140750312500 
 C -4.39296686562500 4.69368025000000 5.05411350312500 
 N -2.13828286562500 1.63581825000000 4.40953350312500 
 N -2.13904486562500 5.38765525000000 4.96048650312500 
 N -4.15260386562500 0.164895249999996 3.66542050312500 
 N -4.22514686562500 4.46202525000000 3.76696350312500 
 N -4.97332886562500 1.48319625000000 7.15106850312500 
 N -4.96201986562500 5.01626825000000 7.57992150312500 
 S -5.64105986562500 0.780212249999995 5.82876750312500 
 S -5.81442586562500 4.54994625000000 6.20264350312500 
 S -2.64379886562500 0.690946249999996 3.10294450312500 
 S -2.62532286562500 4.98645725000000 3.41239850312500 
 S -3.42260086562500 2.06179625000000 7.01101050312500 
 S -3.49109386562500 5.73541425000000 7.34205550312500 
