16

 C -3.06890993437500 1.23659202187500 5.41646999062500 
 C -3.02780393437500 5.18967202187500 5.51953299062500 
 C -4.18213293437500 0.644669021874998 4.71521199062500 
 C -4.31183193437500 4.95014002187500 4.93826299062500 
 N -2.12374893437500 1.68699802187500 4.63358999062500 
 N -2.04000893437500 5.28004502187500 4.66427999062500 
 N -4.06562293437500 0.599672021874998 3.41611399062500 
 N -4.22640693437500 4.73880002187500 3.59252599062500 
 N -4.98798293437500 0.891470021874998 7.21082499062500 
 N -4.54811093437500 5.04068802187500 7.47492899062500 
 S -5.56577793437500 0.451488021874998 5.66774999062500 
 S -5.52191693437500 4.98700802187500 6.17864599062500 
 S -2.55236193437500 1.26060002187500 3.06517499062500 
 S -2.61965493437500 4.99275202187500 3.12929599062500 
 S -3.38342693437500 1.42762002187500 7.15434999062500 
 S -3.01864093437500 5.37053102187500 7.22355799062500 
