16

 C -3.10934928125000 1.37903045625000 5.41716502812500 
 C -3.44348828125000 5.26594545625000 5.37720402812500 
 C -4.37715928125001 1.03453645625000 4.83082302812500 
 C -4.60256928125000 4.58230245625000 4.79433502812500 
 N -2.17202728125000 1.46938445625000 4.47293302812500 
 N -2.49469128125001 5.55514045625000 4.49113902812500 
 N -4.38577628125000 0.773576456249998 3.55547102812500 
 N -4.47945528125000 4.36910445625000 3.48212902812500 
 N -4.75980728125000 1.16125245625000 7.45558302812500 
 N -4.82801028125000 4.54195745625000 7.34931702812500 
 S -5.62857628125001 0.933881456249999 6.04193902812500 
 S -5.80205928125000 4.21431345625000 6.07147002812500 
 S -2.85209128125000 0.936728456249998 3.06543002812500 
 S -3.03501228125000 4.96324945625000 3.02835102812500 
 S -3.12210628125000 1.58218445625000 7.16421902812500 
 S -3.38402328125001 5.21342145625000 7.05397702812500 
