16

 C -3.26002746562500 1.03554279375000 5.52338992500000 
 C -3.28075346562500 5.12944479375000 5.71290892500000 
 C -4.51271846562500 0.735401793750000 4.78834792500000 
 C -4.41184646562500 4.48292379375000 5.10849292500000 
 N -2.22047746562500 1.19332579375000 4.71759992500000 
 N -2.25810246562500 5.32190879375000 4.88907792500000 
 N -4.41382146562500 0.754839793749999 3.44921492500000 
 N -4.27544246562500 4.34153079375000 3.78549492500000 
 N -5.04959946562500 0.573779793750000 7.26069692500000 
 N -4.91474846562500 4.52118579375000 7.62616092500000 
 S -5.84231346562500 0.425824793750000 5.81202792500000 
 S -5.68970046562500 4.20279879375000 6.15940792500000 
 S -2.82962546562500 1.08442879375000 3.18716092500000 
 S -2.77486146562500 4.90009579375000 3.38327292500000 
 S -3.38198546562500 0.885227793750000 7.26220792500000 
 S -3.37493946562500 5.25885779375000 7.47423492500000 
