16

 C -3.33584583437500 1.20717730312500 5.48271896562500 
 C -3.13522683437500 4.96571730312500 5.06140696562500 
 C -4.55270483437500 0.701538303124999 4.78296396562500 
 C -4.32585483437500 4.39164930312500 4.44999296562500 
 N -2.33346183437500 1.60209330312500 4.68919996562500 
 N -2.15198383437500 5.15646530312500 4.15743996562500 
 N -4.44220283437500 0.639442303125000 3.45647296562500 
 N -4.24905083437500 4.17201730312500 3.14939596562500 
 N -5.14286883437500 0.939469303125000 7.30683096562500 
 N -4.96207283437500 4.86146930312500 6.86549596562500 
 S -5.90268383437500 0.444484303124999 5.92127096562500 
 S -5.72306383437500 4.17358530312500 5.50975596562500 
 S -2.87723583437500 1.20288430312500 3.19338596562500 
 S -2.72019983437500 4.74088030312500 2.70512196562500 
 S -3.56481883437500 1.46652730312500 7.17508296562500 
 S -3.35782883437500 5.21542330312500 6.78938896562500 
