16

 C -2.93524850937500 1.64472080625000 5.76711620937500 
 C -3.13646950937500 5.32637580625000 5.70554220937500 
 C -4.15942850937500 1.40128580625000 5.13988420937500 
 C -4.36966550937500 4.88111280625000 5.10534320937500 
 N -1.93070650937500 1.81837080625000 4.90791620937500 
 N -2.15153750937500 5.37806280625000 4.82108520937500 
 N -4.15983550937500 1.56151780625000 3.80400020937500 
 N -4.36500750937500 4.76556680625000 3.77801220937500 
 N -4.67701050937500 1.64704080625000 7.61562220937500 
 N -4.84277650937500 5.26442780625000 7.64789320937500 
 S -5.47155150937500 1.46784080625000 6.18320220937500 
 S -5.63187450937500 4.81561980625000 6.23663120937500 
 S -2.60629950937500 1.83521080625000 3.40893520937500 
 S -2.84431250937500 5.05395780625000 3.30012420937500 
 S -3.00306450937500 1.80202580625000 7.47815720937500 
 S -3.18054750937500 5.56090180625000 7.43202320937500 
