16

 C -3.03043247812500 1.21765913437500 5.52056340937500 
 C -3.11604947812500 5.21493213437500 5.24109540937500 
 C -4.23733247812500 0.903027134375000 4.77234540937500 
 C -4.38033847812500 4.83745013437500 4.58991640937500 
 N -1.92248647812500 1.37384513437500 4.84969540937500 
 N -2.18829047812500 5.55637813437500 4.35425740937500 
 N -3.99821947812500 0.692083134374999 3.47843340937500 
 N -4.25226447812500 4.58297713437500 3.30103840937500 
 N -4.88492547812500 1.18823213437500 7.31810840937500 
 N -4.78524547812500 4.90387513437500 7.17751140937500 
 S -5.56477747812500 0.897134134374999 5.81589640937500 
 S -5.64006847812500 4.68319813437500 5.79865540937500 
 S -2.39750447812500 0.960649134374999 3.25376940937500 
 S -2.68225947812500 5.10410013437500 2.85361140937500 
 S -3.25498547812500 1.58002713437500 7.25135740937500 
 S -3.22809547812500 5.43256713437500 7.01485940937500 
