16

 C -3.00026082500000 1.45959983750000 5.75546455312500 
 C -3.11215082500000 5.13235383750000 5.83165555312500 
 C -4.22906882500000 0.967997837500001 5.07464355312500 
 C -4.33497482500000 4.92126683750000 5.08615155312500 
 N -1.98948682500000 1.72676183750000 4.95302155312500 
 N -2.05153782500000 5.26070883750000 5.06000855312500 
 N -4.06686582500000 0.818555837500002 3.76575255312500 
 N -4.21721282500000 4.88628583750000 3.75553255312500 
 N -4.90842782500000 1.42709583750000 7.46623255312500 
 N -4.88530982500000 5.13302183750000 7.63350455312500 
 S -5.53854682500000 0.725660837500001 6.06762155312500 
 S -5.66960282500000 4.77710683750000 6.20089655312500 
 S -2.50556982500000 1.21039883750000 3.40259855312500 
 S -2.54547482500000 5.14340383750000 3.47430755312500 
 S -3.31899382500000 1.93158883750000 7.38175355312500 
 S -3.25312682500000 5.55012483750000 7.50337455312500 
