16

 C -3.09125400312500 1.23093945625000 5.42442058437500 
 C -3.00777900312500 5.19488745625000 5.51877158437500 
 C -4.18871300312500 0.619469456249999 4.69361958437500 
 C -4.29005300312500 4.96955145625000 4.95943358437500 
 N -2.16820200312500 1.66943345625000 4.65394758437500 
 N -2.01620300312500 5.29394845625000 4.66456558437500 
 N -4.06688700312500 0.637987456249999 3.37262858437500 
 N -4.23623500312500 4.77085145625000 3.62681558437500 
 N -4.97757000312500 0.871197456249999 7.20339258437500 
 N -4.55578300312500 5.02347845625000 7.49024258437500 
 S -5.57192400312500 0.428277456249999 5.70071958437500 
 S -5.48859100312500 4.97714245625000 6.18329358437500 
 S -2.55921800312500 1.28449745625000 3.06521558437500 
 S -2.65821200312500 4.99263545625000 3.14112558437500 
 S -3.37738200312500 1.44775545625000 7.12383758437500 
 S -3.03937500312500 5.37435245625000 7.24252158437500 
