16

 C -3.35942439062500 1.04519829062500 5.64341669687500 
 C -2.96522739062500 5.12091329062500 5.53821569687500 
 C -4.57515839062500 0.632756290625004 4.90820469687500 
 C -4.14825039062500 4.62296929062500 4.88368569687500 
 N -2.28711039062500 1.19513129062500 4.85721669687500 
 N -1.93232939062500 5.15426229062500 4.69455369687500 
 N -4.37996539062500 0.394307290625004 3.61270369687500 
 N -4.04396139062500 4.34490429062500 3.58779169687500 
 N -5.24691139062500 0.817140290625003 7.31055869687500 
 N -4.70746639062500 4.79745429062500 7.37529269687500 
 S -5.92026739062500 0.242939290625004 5.92183569687500 
 S -5.43154339062500 4.32173529062500 5.97573269687500 
 S -2.88147039062500 0.882521290625004 3.34129369687500 
 S -2.47031339062500 4.74825929062500 3.18065369687500 
 S -3.63507939062500 1.24435629062500 7.32929869687500 
 S -3.14667939062500 5.36818129062500 7.28089769687500 
