16

 C -3.50971572500000 1.38520286250000 5.51542510312500 
 C -3.06278972500000 5.14609386250000 5.42079210312500 
 C -4.49434072500000 0.566921862500004 4.86503610312500 
 C -4.27062572500000 4.79147286250000 4.65910710312500 
 N -2.45963672500000 1.77819986250000 4.78235710312500 
 N -1.92523772500000 5.11818586250000 4.72220910312500 
 N -4.18559172500000 0.319261862500003 3.57934110312500 
 N -3.99392872500000 4.45284086250000 3.37854810312500 
 N -5.31159672500000 0.896875862500003 7.23263610312500 
 N -5.00099772500000 5.15888286250000 7.13833710312500 
 S -5.88322372500000 0.229922862500003 5.85919110312500 
 S -5.69609572500000 4.93089486250000 5.65914510312500 
 S -2.67908872500000 0.990780862500004 3.27075010312500 
 S -2.36347572500000 4.59625886250000 3.16795810312500 
 S -3.87779572500000 1.73289986250000 7.22964810312500 
 S -3.31959472500000 5.51588586250000 7.12375210312500 
