16

 C -2.90159055624999 2.11942592500000 5.47923794687500 
 C -3.09991755624999 5.22281992500000 5.34679694687500 
 C -4.11060555624999 1.60644892500000 4.84744794687500 
 C -4.30443955624999 4.76072392500000 4.61712494687500 
 N -1.85626355624999 2.29844192500000 4.65513294687500 
 N -2.08753755624999 5.60725792500000 4.57743494687500 
 N -4.01419355624999 1.38416992500000 3.53275694687500 
 N -4.11004855624999 4.72102492500000 3.31732394687500 
 N -4.64088455624999 1.78421692500000 7.37888194687500 
 N -4.90832755624999 5.08087192500000 7.15572394687500 
 S -5.43246555624999 1.41453592500000 5.93965194687500 
 S -5.68024755624999 4.57328992500000 5.71341394687500 
 S -2.49625255624999 1.82753692500000 3.15421994687500 
 S -2.53503155624999 5.28238892500000 3.03738894687500 
 S -3.00718655624999 2.24564092500000 7.23938594687500 
 S -3.28447155624999 5.32622292500000 7.07983894687500 
