16

 C -3.23072596250000 1.55216563750000 5.47023456250000 
 C -2.96733796250000 5.10667063750000 5.54952356250000 
 C -4.47561796250000 1.06180663750000 4.90439356250000 
 C -4.21597296250000 4.65764163750000 4.97222156250000 
 N -2.28799396250000 1.77609063750000 4.56083456250000 
 N -1.94049296250000 5.15683963750000 4.67841256250000 
 N -4.47127896250000 0.929286637500002 3.52270056250000 
 N -4.13605096250000 4.39308863750000 3.64864056250000 
 N -4.82810896250000 1.39178463750000 7.50238356250000 
 N -4.73704796250000 5.08852563750000 7.49183256250000 
 S -5.74560896250000 0.904175637500003 6.16157656250000 
 S -5.58902196250000 4.76372763750000 6.07873456250000 
 S -2.90243496250000 1.39830363750000 3.06387856250000 
 S -2.50553996250000 4.62705663750000 3.22844256250000 
 S -3.25471796250000 1.75735263750000 7.20809556250000 
 S -3.10157596250000 5.34246563750000 7.24004656250000 
