16

 C -3.38038571875000 1.26481315625000 5.42452165625000 
 C -3.16793871875000 5.09939415625000 5.00258765625000 
 C -4.43142071875000 0.491936156249996 4.75397465625000 
 C -4.29187071875000 4.45618215625000 4.33041665625000 
 N -2.41985671875000 1.74830715625000 4.63348665625000 
 N -2.17934571875000 5.49091715625000 4.20031865625000 
 N -4.21043771875000 0.340641156249996 3.43727465625000 
 N -4.12739571875000 4.39365015625000 2.97186265625000 
 N -5.13389271875000 0.826829156249996 7.25061965625000 
 N -4.77815171875000 4.24048415625000 6.88173465625000 
 S -5.73898071875000 0.187912156249996 5.83206765625000 
 S -5.55014471875000 3.83845615625000 5.41414965625000 
 S -2.81112271875000 1.16509815625000 3.12133865625000 
 S -2.66593271875000 5.09258915625000 2.67378265625000 
 S -3.59305871875000 1.48659715625000 7.13565665625000 
 S -3.41736071875000 5.24033515625000 6.77306965625000 
