16

 C -3.12841935000000 1.27341120000000 5.41081461250000 
 C -3.26210435000000 5.36064720000000 5.58749761250000 
 C -4.32017735000000 0.602533200000001 4.86878261250000 
 C -4.37968235000000 4.73757920000000 4.99371761250000 
 N -2.08183135000000 1.23544420000000 4.58761461250000 
 N -2.17603635000000 5.61408320000000 4.80684561250000 
 N -4.22924435000000 0.111742200000001 3.62650361250000 
 N -4.16934635000000 4.33016620000000 3.70143161250000 
 N -5.08775735000000 1.37318320000000 7.19753661250000 
 N -4.93472635000000 5.19060920000000 7.51203161250000 
 S -5.69347435000000 0.524842200000001 5.85296361250000 
 S -5.70295035000000 4.68915020000000 6.14648761250000 
 S -2.62516335000000 0.410091200000001 3.21005961250000 
 S -2.59188835000000 4.91989520000000 3.36789361250000 
 S -3.53470235000000 1.98306420000000 6.99967561250000 
 S -3.39191435000000 5.66898720000000 7.28600461250000 
