16

 C -2.84677993750000 1.27541794999999 5.79176538437500 
 C -3.10914493750000 4.69523694999999 5.54655938437500 
 C -4.08652393750000 1.09533895000000 5.04147838437500 
 C -4.24546193750000 4.31653694999999 4.74758038437500 
 N -1.81440793750000 1.37043294999999 4.98800638437500 
 N -1.93864993750000 4.72420194999999 4.89486838437500 
 N -4.06004993750000 1.10226695000000 3.74648738437500 
 N -3.97799393750000 4.13785295000000 3.44244438437500 
 N -4.91748393750000 1.62850794999999 7.48019838437500 
 N -5.02680193750000 4.93682695000000 7.17147238437500 
 S -5.48841693750000 1.19544594999999 5.95823938437500 
 S -5.75976193750000 4.33180895000000 5.79873438437500 
 S -2.38657593750000 1.14604395000000 3.38980738437500 
 S -2.27004293750000 4.37631394999999 3.32769738437500 
 S -3.18781393750000 1.55947594999999 7.52660838437500 
 S -3.42030393750000 5.04572094999999 7.17486538437500 
