16

 C -3.15674384687500 1.18827440312500 5.62148053750000 
 C -3.07926084687500 5.03056440312500 5.60873753750000 
 C -4.42672384687500 0.789847403124998 4.96764153750000 
 C -4.30474584687500 4.69235940312500 4.93251853750000 
 N -2.13054184687500 1.38020040312500 4.79033953750000 
 N -2.10626684687500 5.36177140312500 4.77185653750000 
 N -4.34131184687500 0.598921403124998 3.67660853750000 
 N -4.22128284687500 4.51189440312500 3.63509653750000 
 N -4.98691484687500 1.13759640312500 7.41617153750000 
 N -4.76646184687500 4.65197540312500 7.41535153750000 
 S -5.71758684687500 0.501197403124999 6.07916153750000 
 S -5.57802384687500 4.34980940312500 6.03472153750000 
 S -2.77518284687500 1.05138840312500 3.28662153750000 
 S -2.69361684687500 5.01253140312500 3.20447953750000 
 S -3.35857684687500 1.47953340312500 7.26395153750000 
 S -3.21629584687500 5.19515140312500 7.34634753750000 
