16

 C -3.44174859375000 1.52671645625000 5.50354500000000 
 C -3.03769959375000 5.13535645625000 5.41748600000000 
 C -4.43703559375000 0.688219456249997 4.94257700000000 
 C -4.24637559375000 4.76031745625000 4.73009700000000 
 N -2.41897559375000 1.83739645625000 4.67859000000000 
 N -1.90543759375000 5.18164745625000 4.69532800000000 
 N -4.12582559375000 0.214818456249997 3.72630800000000 
 N -3.99785459375000 4.47721945625000 3.40687300000000 
 N -5.23970459375000 0.866992456249998 7.37335100000000 
 N -4.84644759375000 4.98566445625000 7.19697300000000 
 S -5.80782359375000 0.280114456249997 5.84760700000000 
 S -5.65009059375000 4.97531845625000 5.81160100000000 
 S -2.77499659375000 0.967021456249997 3.31630200000000 
 S -2.33357359375000 4.76233345625000 3.22780600000000 
 S -3.85714459375000 1.77070245625000 7.22457500000000 
 S -3.27545359375000 5.47466345625000 7.06936400000000 
