16

 C -3.16254498750000 1.55213125000000 5.38840511250000 
 C -3.05836398750000 4.95783525000000 5.41225311250000 
 C -4.41020898750000 1.15540925000000 4.69340211250000 
 C -4.33190298750000 4.91027025000000 4.71750211250000 
 N -2.14914098750000 1.86829225000000 4.58406611250000 
 N -2.02510598750000 5.15505125000000 4.63402611250000 
 N -4.21915798750000 1.01294725000000 3.40316111250000 
 N -4.24992898750000 4.89213625000000 3.39329411250000 
 N -4.97183198750000 1.15268325000000 7.16054211250000 
 N -4.84607198750000 4.99214525000000 7.30805511250000 
 S -5.76705498750000 0.852527250000001 5.70331811250000 
 S -5.56711198750000 4.74001925000000 5.86937411250000 
 S -2.68992698750000 1.54872325000000 2.97015911250000 
 S -2.59123698750000 5.04720725000000 3.06892511250000 
 S -3.38919698750000 1.61606625000000 7.10212911250000 
 S -3.23670298750000 4.84799925000000 7.20988611250000 
