16

 C -3.11398999062500 1.12768307187500 5.79606320937500 
 C -3.17130299062500 4.96353707187500 5.57754820937500 
 C -4.40013099062500 0.870121071874999 5.20107320937500 
 C -4.43482399062500 4.61105807187500 4.93851520937500 
 N -2.12089499062500 1.20128707187500 4.92306220937500 
 N -2.19974199062500 5.17509907187500 4.70283820937500 
 N -4.33934299062500 0.592111071874999 3.90267620937500 
 N -4.37472499062500 4.46923607187500 3.62056320937500 
 N -4.79204899062500 1.48368107187500 7.61750220937500 
 N -4.86377299062500 5.02279607187500 7.53325120937500 
 S -5.69968499062500 1.13707007187500 6.29085320937500 
 S -5.72781999062500 4.52774707187500 6.11739420937500 
 S -2.74963499062500 0.773256071874999 3.49377620937500 
 S -2.80542799062500 4.97003207187500 3.21488520937500 
 S -3.15429999062500 1.70956807187500 7.35935520937500 
 S -3.22837699062500 5.47856307187500 7.25188720937500 
