16

 C -3.03686472500000 1.25378976875000 5.72035506250000 
 C -3.22049472500000 5.30966276875000 5.36745606250000 
 C -4.17384772500000 0.679506768750000 4.99505106250000 
 C -4.27754272500000 4.48058976875000 4.87206906250000 
 N -2.05770872500000 1.52518976875000 4.86716606250000 
 N -2.25080972500000 5.58079076875000 4.47410506250000 
 N -4.00057272500000 0.479226768749999 3.67051706250000 
 N -3.97128272500000 3.86043476875000 3.72852006250000 
 N -4.88600172500000 1.06265376875000 7.43281606250000 
 N -5.00635572500000 5.10898176875000 7.22452706250000 
 S -5.50018772500000 0.319089768750000 6.02068806250000 
 S -5.51719972500000 4.12983376875000 6.04157706250000 
 S -2.46196672500000 0.928743768750000 3.34357206250000 
 S -2.60069672500000 4.57264076875000 3.16475706250000 
 S -3.28251272500000 1.63176576875000 7.40940806250000 
 S -3.59686572500000 5.88072276875000 6.96872606250000 
