16

 C -3.27311229375000 1.49917647187500 5.21386898750000 
 C -3.08240229375000 5.09339047187500 5.41793298750000 
 C -4.47862729375000 0.994461471875000 4.52967198750000 
 C -4.27197529375000 4.65065247187500 4.74538798750000 
 N -2.14905429375000 1.53310247187500 4.47300698750000 
 N -2.01227229375000 5.09504747187500 4.64025498750000 
 N -4.24664729375000 0.620957471875000 3.26497898750000 
 N -4.06027829375000 4.03859747187500 3.56255398750000 
 N -5.10120629375000 1.02993747187500 7.02691198750000 
 N -4.85955629375000 4.91500647187500 7.28577898750000 
 S -5.81239629375000 0.549480471875000 5.60325398750000 
 S -5.64322629375000 4.46403147187500 5.89469298750000 
 S -2.64953429375000 0.862742471875000 3.00719598750000 
 S -2.41872629375000 4.21815147187500 3.26487998750000 
 S -3.58854829375000 1.70623747187500 6.93867498750000 
 S -3.31142329375000 5.49268847187500 7.12940198750000 
