16

 C -3.12881154062500 1.37653106875000 5.61360707187500 
 C -3.58743954062500 4.81668006875000 5.07729107187500 
 C -4.37479554062500 0.884526068749997 5.03568907187500 
 C -4.73007254062500 4.22632306875000 4.42957207187500 
 N -2.16529854062500 1.49247106875000 4.66697207187500 
 N -2.62753754062500 5.14850206875000 4.23352907187500 
 N -4.28400054062500 0.568525068749997 3.72928807187500 
 N -4.58778554062500 3.92866906875000 3.14074507187500 
 N -4.77178854062500 0.966829068749997 7.57198607187500 
 N -5.33755854062500 4.47519006875000 6.96742107187500 
 S -5.59960954062500 0.438009068749997 6.19646307187500 
 S -5.97139054062500 3.82199806875000 5.56242607187500 
 S -2.78900954062500 1.06155906875000 3.14737507187500 
 S -3.10172154062500 4.60080406875000 2.69866207187500 
 S -3.27454254062500 1.71800506875000 7.30949807187500 
 S -3.86272454062500 5.29022306875000 6.72820607187500 
