16

 C -3.19498795000000 1.35243040937500 5.27607360312500 
 C -2.99110195000000 4.96856240937500 5.60563760312500 
 C -4.22759795000000 0.620704409375004 4.64942960312500 
 C -4.26603695000000 4.53962340937500 5.03652160312500 
 N -2.21062095000000 1.71980940937500 4.44369960312500 
 N -2.05474495000000 5.12457140937500 4.70377060312500 
 N -4.07578195000000 0.508894409375005 3.31669860312500 
 N -4.26841795000000 4.48271340937500 3.70024460312500 
 N -4.89754695000000 0.887919409375004 7.17750960312500 
 N -4.54517395000000 4.80591240937501 7.60121460312500 
 S -5.57139195000000 0.311396409375004 5.76378460312500 
 S -5.51105895000000 4.43249540937501 6.29808260312500 
 S -2.56238395000000 1.13387040937500 2.91407760312500 
 S -2.68694695000000 4.76107240937500 3.21396260312500 
 S -3.38119895000000 1.52269340937500 7.00020960312500 
 S -2.94734395000000 5.04708340937500 7.34726560312500 
