16

 C -3.11521295000000 1.40689856562500 5.56380516875000 
 C -3.22831495000000 5.07364456562500 5.15891216875000 
 C -4.40765595000000 0.901193565625003 4.97701716875000 
 C -4.34729195000000 4.27863056562500 4.65672716875000 
 N -2.12412995000000 1.47828256562500 4.67304316875000 
 N -2.17507595000000 5.10322056562500 4.34074216875000 
 N -4.33165495000000 0.714195565625003 3.66122216875000 
 N -4.17938095000000 3.91126356562500 3.39040516875000 
 N -4.76912495000000 1.27776656562500 7.48368616875000 
 N -4.88996795000000 5.03976356562500 7.05408016875000 
 S -5.65517895000000 0.871757565625003 6.15592716875000 
 S -5.64833595000000 4.22425556562500 5.77002416875000 
 S -2.76211295000000 0.978877565625003 3.22425616875000 
 S -2.63382395000000 4.37564456562500 2.96029116875000 
 S -3.24260895000000 1.84936256562500 7.23985516875000 
 S -3.33191295000000 5.53223056562500 6.82528816875000 
