16

 C -3.02404504062500 1.34812958437500 5.43817169375000 
 C -2.93193804062500 5.17976958437500 5.68985669375000 
 C -4.25825104062500 0.992276584374999 4.72554669375000 
 C -4.16281904062500 4.78471058437500 5.04124169375000 
 N -1.93612204062500 1.34749558437500 4.67813869375000 
 N -1.90934704062500 5.30960458437500 4.78387969375000 
 N -4.04175504062500 0.635383584374999 3.47216469375000 
 N -4.13976104062500 4.54631658437500 3.73371569375000 
 N -4.83519604062500 1.32178058437500 7.34582469375000 
 N -4.84606004062500 4.99908758437500 7.40852869375000 
 S -5.70322304062500 1.08401358437500 5.91072069375000 
 S -5.62481604062500 4.80154858437500 5.98971669375000 
 S -2.40827204062500 0.833690584374999 3.23440269375000 
 S -2.59930804062500 4.93574158437500 3.30167369375000 
 S -3.11820804062500 1.63571858437500 7.12748969375000 
 S -3.24673604062500 5.43643658437500 7.50180569375000 
