16

 C -3.06552840312500 1.51432162500000 5.58295241250000 
 C -2.97299340312500 5.33753662500000 5.41743641250000 
 C -4.31241140312500 1.00542062500000 5.12139141250000 
 C -4.21272440312500 4.89252162500000 4.78036341250000 
 N -2.13538540312500 1.65203862500000 4.61500141250000 
 N -2.03865240312500 5.53928062500000 4.56771241250000 
 N -4.30339540312500 0.710401624999997 3.81236141250000 
 N -4.12535640312500 4.72602162500000 3.47646741250000 
 N -4.62403240312500 1.18287562500000 7.59208441250000 
 N -4.54676640312500 4.85372062500000 7.34527341250000 
 S -5.54871840312500 0.840832624999997 6.27673241250000 
 S -5.44592040312500 4.64621162500000 5.99258241250000 
 S -2.83929640312500 1.14930862500000 3.22038841250000 
 S -2.56489440312500 5.23855662500000 3.04883641250000 
 S -3.03964940312500 1.60523862500000 7.42008941250000 
 S -2.99169140312500 5.42507662500000 7.12573341250000 
