16

 C -3.79495196562500 1.16210870937500 5.68183772500000 
 C -3.14888196562500 4.96689470937500 5.34097672500000 
 C -4.86877696562500 0.683312709375000 4.90185472500000 
 C -4.40138396562500 4.50677170937500 4.76962972500000 
 N -2.68317396562500 1.42876670937500 5.00375472500000 
 N -2.15995496562500 5.03064870937500 4.48047672500000 
 N -4.60669096562500 0.519030709375000 3.58750272500000 
 N -4.29918496562500 4.16207170937500 3.47740672500000 
 N -5.61523696562500 0.670468709375000 7.36846772500000 
 N -4.72740896562500 5.04356470937500 7.30260672500000 
 S -6.25820496562500 0.208567709375000 5.89481972500000 
 S -5.54338596562500 4.25679270937500 6.05407372500000 
 S -3.11319396562500 1.20199470937500 3.45288272500000 
 S -2.71845796562500 4.58482170937500 3.03994172500000 
 S -4.02496996562500 1.26466970937500 7.36684072500000 
 S -3.17496396562500 5.50021270937500 6.95499972500000 
