16

 C -3.16802042812500 1.46271774062500 5.53616276562500 
 C -2.81995142812500 5.34512474062500 5.38944376562500 
 C -4.40069242812500 0.917636740625000 5.05938476562500 
 C -4.11124542812500 4.87565774062500 4.84109976562500 
 N -2.15945542812500 1.64556174062500 4.69249276562500 
 N -1.90959742812500 5.61277574062500 4.47714976562500 
 N -4.31727342812500 0.589481740625001 3.74723776562500 
 N -4.16251642812500 4.78930074062500 3.52964276562500 
 N -4.65088442812500 1.15842874062500 7.64435876562500 
 N -4.58524842812500 4.93573874062500 7.38971976562500 
 S -5.58498742812500 0.742527740625000 6.34588376562500 
 S -5.44491542812500 4.66131674062500 5.94997676562500 
 S -2.79333142812500 1.10815374062500 3.24602276562500 
 S -2.68861942812500 5.24446774062500 3.00677576562500 
 S -3.06714542812500 1.64073274062500 7.23337376562500 
 S -2.99835042812500 5.39551774062500 7.23383976562500 
