16

 C -3.41804103750000 1.28214572187500 5.95577204375000 
 C -3.13667903750000 5.01130272187500 5.23815904375000 
 C -4.61524503750000 0.855067721875002 5.17042204375000 
 C -4.35702803750000 4.80126272187500 4.48580204375000 
 N -2.32503203750000 1.45141572187500 5.20432804375000 
 N -2.08125103750000 5.12080172187500 4.41425704375000 
 N -4.35760503750000 0.820451721875003 3.85938304375000 
 N -4.19848603750000 4.48014872187500 3.18753504375000 
 N -5.35379703750000 1.03205072187500 7.62127704375000 
 N -5.03325503750000 4.92721072187500 6.99001204375000 
 S -5.99289303750000 0.526916721875003 6.17093204375000 
 S -5.74353103750000 4.51924172187500 5.55768204375000 
 S -2.72902803750000 1.20323172187500 3.62199804375000 
 S -2.58902103750000 4.73129872187500 2.84886004375000 
 S -3.69760503750000 1.26473772187500 7.64863104375000 
 S -3.34825303750000 5.24421772187500 6.93993104375000 
