16

 C -3.20453444062500 1.33528230625000 5.51335657812500 
 C -3.09062544062500 5.62446630625000 5.62084457812500 
 C -4.46370944062500 0.848353306249999 4.84632057812500 
 C -4.22410044062500 5.03081330625000 4.94191857812500 
 N -2.22984244062500 1.59457130625000 4.69542757812500 
 N -2.14013944062500 6.07710930625000 4.79553457812500 
 N -4.25858844062500 0.561363306249999 3.56031857812500 
 N -4.01239844062500 4.75487130625000 3.65102557812500 
 N -5.12360144062500 1.23184330625000 7.31797257812500 
 N -4.88662444062500 5.06441130625000 7.46335757812500 
 S -5.89374644062500 0.757910306249999 5.89552457812500 
 S -5.46539044062500 4.51886030625000 5.95855657812500 
 S -2.73412044062500 0.983883306249999 3.18360557812500 
 S -2.51263644062500 5.45008930625000 3.29397257812500 
 S -3.46045144062500 1.49730630625000 7.25746557812500 
 S -3.37219644062500 5.84186130625000 7.34033557812500 
