16

 C -2.92220060937500 1.62330446250000 5.78068696875000 
 C -3.15080560937500 5.27489446250000 5.69329096875000 
 C -4.17836260937500 1.37409046250000 5.12941996875000 
 C -4.39481360937500 4.91250046250000 5.06468996875000 
 N -1.97378760937500 1.90520746250000 4.92888996875000 
 N -2.19436560937500 5.44289346250000 4.81234296875000 
 N -4.17425260937500 1.53726346250000 3.83321696875000 
 N -4.36375660937500 4.75740746250000 3.73904996875000 
 N -4.67231760937500 1.61129446250000 7.61001096875000 
 N -4.81107560937500 5.24959346250000 7.63842796875000 
 S -5.50449360937500 1.48907646250000 6.22432496875000 
 S -5.66453460937500 4.83052946250000 6.25299696875000 
 S -2.57606060937500 1.83389546250000 3.40368496875000 
 S -2.79871760937500 5.06780646250000 3.30463696875000 
 S -3.04209160937500 1.78148346250000 7.46743096875000 
 S -3.15669660937500 5.53616646250000 7.43732896875000 
