16

 C -3.12737155000000 1.03634059062500 5.50223825937500 
 C -3.10912655000000 5.49842559062500 5.58784425937500 
 C -4.43791355000000 0.861598590624997 4.83954025937500 
 C -4.24764255000000 4.93690759062500 4.84543725937500 
 N -2.09526455000000 1.06456459062500 4.72111625937500 
 N -2.08667655000000 5.79878959062500 4.81828025937500 
 N -4.34076855000000 0.716080590624997 3.51711925937500 
 N -4.00659655000000 4.65994659062500 3.55957625937500 
 N -4.93714755000000 1.17668659062500 7.35859425937500 
 N -4.94078055000000 5.13858859062500 7.41485925937500 
 S -5.72181255000000 0.724801590624996 5.97270225937500 
 S -5.49541055000000 4.44854959062500 5.92965925937500 
 S -2.78241455000000 1.07628759062500 3.19705725937500 
 S -2.42131755000000 5.28565459062500 3.28077025937500 
 S -3.28655955000000 1.44599759062500 7.20416825937500 
 S -3.51699055000000 5.99686659062500 7.19917425937500 
