16

 C -3.12517890000000 1.45539815000000 5.46473998125000 
 C -3.28070890000000 5.05073915000000 5.40613398125000 
 C -4.23403890000000 0.832449149999996 4.82787498125000 
 C -4.52503890000000 4.50745115000000 4.85195998125000 
 N -2.02202590000000 1.56631015000000 4.75384298125000 
 N -2.27256790000000 5.11681415000000 4.55187198125000 
 N -4.03692590000000 0.549640149999996 3.55279698125000 
 N -4.46227090000000 4.31681614999999 3.51955298125000 
 N -4.96532590000000 1.38516915000000 7.18613098125000 
 N -4.92151990000000 5.26615415000000 7.27985198125000 
 S -5.66752190000000 0.818774149999996 5.76688198125000 
 S -5.77577190000000 4.54275615000000 6.07024298125000 
 S -2.44878190000000 1.05252215000000 3.24914098125000 
 S -2.86045090000000 4.63193615000000 3.09508098125000 
 S -3.35404790000000 1.89758515000000 7.11976798125000 
 S -3.31214890000000 5.62720715000000 7.05966598125000 
