16

 C -3.32997352812500 1.00635701250000 5.65326466250000 
 C -2.89970052812500 5.08927001250000 5.58276066250000 
 C -4.49758652812500 0.637046012500001 4.93164266250000 
 C -4.12932152812500 4.68760001250000 4.91884766250000 
 N -2.26800452812500 1.12254101250000 4.89545866250000 
 N -1.90599752812500 5.19305301250000 4.71499566250000 
 N -4.37546352812500 0.375697012500001 3.64368066250000 
 N -4.07178552812500 4.38447701250000 3.62727266250000 
 N -5.19167352812500 0.918865012500000 7.29092466250000 
 N -4.71554952812500 4.79376501250000 7.37280366250000 
 S -5.84354852812500 0.267503012500001 5.88024066250000 
 S -5.42816352812500 4.28885701250000 5.96247066250000 
 S -2.80651952812500 0.890361012500001 3.34970766250000 
 S -2.47322652812500 4.76887001250000 3.21258566250000 
 S -3.59510452812500 1.25930001250000 7.30700066250000 
 S -3.15155752812500 5.36621001250000 7.29482866250000 
