16

 C -3.17251650937500 1.41918719375000 5.67043490625000 
 C -2.86800450937500 5.24427619374999 5.45355790625000 
 C -4.44185850937500 1.13463519374999 5.02838590625000 
 C -4.11246650937500 4.85993019375000 4.81661490625000 
 N -2.12922450937500 1.54577819375000 4.88555790625000 
 N -1.86014150937500 5.35940819375000 4.61038890625000 
 N -4.33008450937500 1.12683919375000 3.70639190625000 
 N -4.09951050937500 4.75581719375000 3.49078390625000 
 N -4.86121150937500 1.56770219375000 7.55324390625000 
 N -4.72193750937500 5.10412919375000 7.32619490625000 
 S -5.69368250937500 0.878687193749995 6.21694890625000 
 S -5.38393150937500 4.56542919375000 5.87156790625000 
 S -2.70234650937500 1.44666719375000 3.29020590625000 
 S -2.59337450937500 5.13263919374999 3.05082490625000 
 S -3.21679850937500 1.81242319375000 7.33562790625000 
 S -3.06379150937500 5.36730619374999 7.21351790625000 
