16

 C -3.30132546250000 1.10221442500000 5.96962812812500 
 C -2.91410146250000 4.77086342500000 5.29141612812500 
 C -4.45428846250000 0.657931425000002 5.19593612812500 
 C -4.21477746250000 4.42454242500000 4.70680212812500 
 N -2.27783346250000 1.47067842500000 5.20216112812500 
 N -1.89738846250000 4.84145342500000 4.37434112812500 
 N -4.22931546250000 0.688713425000002 3.87780912812500 
 N -4.20561046250000 4.47500842500000 3.36635312812500 
 N -4.99621746250000 0.466345425000002 7.72517312812500 
 N -4.72665346250000 4.56749042500000 7.19991012812500 
 S -5.83073946250000 0.340810425000002 6.25341312812500 
 S -5.59131346250000 4.54104742500000 5.81355112812500 
 S -2.67532546250000 1.30041542500000 3.61171412812500 
 S -2.66447146250000 4.74092542500000 2.88629412812500 
 S -3.53931746250000 1.32359542500000 7.69145012812500 
 S -3.06154446250000 4.87108542500000 7.07643012812500 
