16

 C -3.32179249375000 1.28173608437500 5.27496856250000 
 C -3.20624449375000 5.34024008437500 5.57705556250000 
 C -4.54560349375000 0.712251084374998 4.77610056250000 
 C -4.36878849375000 5.19735808437500 4.76193556250000 
 N -2.32282749375000 1.44778708437500 4.41553156250000 
 N -2.13175849375000 5.60061908437500 4.86568156250000 
 N -4.50323249375000 0.537021084374998 3.45477256250000 
 N -4.20582649375000 5.14282608437500 3.46560956250000 
 N -5.02096549375000 1.02367308437500 7.26232356250000 
 N -5.15828349375000 5.04557808437500 7.30804356250000 
 S -5.83324549375000 0.453285084374998 5.93192556250000 
 S -5.75217249375000 5.03807508437500 5.71087756250000 
 S -2.94560549375000 0.900054084374998 2.90344456250000 
 S -2.56337949375000 5.40573608437500 3.25941456250000 
 S -3.43735349375000 1.59184508437500 6.98963556250000 
 S -3.50122849375000 5.19696408437500 7.32063056250000 
