16

 C -3.08267367500000 1.65296324687500 5.43241645000000 
 C -2.97773367500000 5.24949524687500 5.47880345000000 
 C -4.34112867500000 1.41083224687500 4.74768745000000 
 C -4.25384767500000 4.96496024687500 4.88482645000000 
 N -2.04155167500000 1.77337724687500 4.59454745000000 
 N -1.98619967500000 5.50485324687500 4.59907945000000 
 N -4.20761567500000 1.12812924687500 3.44968645000000 
 N -4.17693267500000 4.82416124687500 3.56315445000000 
 N -4.88883867500000 1.29819524687500 7.32610745000000 
 N -4.76546667500000 4.95152224687500 7.35551645000000 
 S -5.71976067500000 1.18775924687500 5.85906345000000 
 S -5.60355767500000 4.88691324687500 5.94840345000000 
 S -2.63415867500000 1.47447924687500 3.07142145000000 
 S -2.66388367500000 5.20829024687500 3.11048645000000 
 S -3.24408667500000 1.58145424687500 7.19753145000000 
 S -3.12079767500000 5.19697624687500 7.24778345000000 
