16

 C -3.02606782187500 1.31097463750000 5.44213160937500 
 C -3.24099782187500 5.46689263750000 5.41178960937500 
 C -4.31631782187500 1.07079363750000 4.79065260937500 
 C -4.30192782187500 4.68041663750000 4.81348760937500 
 N -2.00113982187500 1.30571963750000 4.54752460937500 
 N -2.21373182187500 5.73863763750000 4.59113260937500 
 N -4.26238682187500 0.750870637500000 3.51582960937500 
 N -3.98005582187500 4.24845563750000 3.58800560937500 
 N -4.72505682187500 0.935460637500000 7.39034960937500 
 N -5.15607982187500 5.39688863750000 7.16675260937500 
 S -5.54839482187500 0.890794637500001 5.94289560937500 
 S -5.63161682187500 4.41918963750000 5.87109760937500 
 S -2.65412782187500 0.983082637500001 3.09006960937500 
 S -2.53138782187500 4.93468663750000 3.18640860937500 
 S -3.14094282187500 1.33551063750000 7.20935560937500 
 S -3.53082282187500 5.92437063750000 7.06017560937500 
