16

 C -2.96832124062500 1.28743625937500 5.67576945937500 
 C -2.97054924062500 5.11634525937500 5.41544645937500 
 C -4.19865724062500 0.819827259375001 5.03106145937500 
 C -4.06477124062500 4.33414025937500 4.98794945937500 
 N -1.92180124062500 1.46009225937500 4.85750845937500 
 N -1.99341024062500 5.21384725937500 4.48528745937500 
 N -4.07416624062500 0.696523259375001 3.70045445937500 
 N -3.97344724062500 3.88559925937500 3.72855445937500 
 N -4.74953824062500 0.993389259375001 7.48436645937500 
 N -4.81915424062500 5.17876625937500 7.29061745937500 
 S -5.54588024062500 0.779697259375001 6.05422445937500 
 S -5.42647124062500 4.16795825937500 6.06040245937500 
 S -2.54886624062500 0.973579259375001 3.33816345937500 
 S -2.51305424062500 4.35390025937500 3.16729345937500 
 S -3.21584424062500 1.57854225937500 7.37484845937500 
 S -3.18630924062500 5.63813925937500 7.04662445937500 
