16

 C -3.31684343125000 1.17574081875000 5.69306263750000 
 C -2.91845643125000 5.11594581875000 5.56075263750000 
 C -4.41790743125000 0.628362818750000 5.01195863750000 
 C -4.05122243125000 4.50547781875000 4.89479463750000 
 N -2.29327343125000 1.36116781875000 4.89317163750000 
 N -1.89629343125000 5.26160581875000 4.70390463750000 
 N -4.26633743125000 0.464622818750001 3.74457963750000 
 N -4.02569943125000 4.41474281875000 3.56544663750000 
 N -5.08491943125000 0.681762818750001 7.43089263750000 
 N -4.68101743125000 4.65690781875000 7.42719363750000 
 S -5.83148443125000 0.360476818750000 5.99198263750000 
 S -5.38681443125000 4.33427781875000 5.91399063750000 
 S -2.73458243125000 0.869444818750001 3.38428363750000 
 S -2.50886243125000 4.89648381875000 3.16180063750000 
 S -3.48184743125000 1.20939481875000 7.38732763750000 
 S -3.10059543125000 5.24868181875000 7.29996663750000 
