16

 C -3.16722906562500 1.50162167812500 5.39156676562500 
 C -3.14757106562500 5.28101067812500 6.04136276562500 
 C -4.30470606562500 0.944260678125000 4.66506376562500 
 C -4.34861106562500 5.02476567812500 5.37264976562500 
 N -2.13394706562500 1.77729567812500 4.63831776562500 
 N -2.09005306562500 5.34830267812500 5.19780976562500 
 N -4.03794906562500 0.782287678125001 3.38253576562500 
 N -4.27731906562500 4.85590767812500 4.04499376562500 
 N -4.84262006562500 1.07071267812500 7.24653476562500 
 N -4.99655006562500 5.13956267812500 7.79870076562500 
 S -5.62705106562500 0.657668678125001 5.83914076562500 
 S -5.71843306562500 4.88475567812500 6.34770276562500 
 S -2.55891006562500 1.45026067812500 3.05731676562500 
 S -2.74743706562500 5.06863967812500 3.63191076562500 
 S -3.22668906562500 1.49870367812500 7.07153476562500 
 S -3.41803106562500 5.44542467812500 7.77958776562500 
