16

 C -3.19684927500000 1.09997570937500 5.50730750937500 
 C -3.25716527500000 4.68318770937500 5.56830850937500 
 C -4.31167227500000 0.681340709375001 4.73416050937500 
 C -4.54879327500000 4.38935370937500 5.04256350937500 
 N -2.12054427500000 1.47088070937500 4.83856950937500 
 N -2.21814027500000 4.74843970937500 4.72113350937500 
 N -4.13051227500000 0.823017709375002 3.42891850937500 
 N -4.51381127500000 4.47469270937500 3.71691350937500 
 N -5.02574727500000 0.245122709375002 7.17086350937500 
 N -4.97222527500000 4.64555670937500 7.57487850937500 
 S -5.67343427500000 6.631970937500187E-002 5.66009150937500 
 S -5.86263727500000 4.57997570937500 6.16378850937500 
 S -2.52985627500000 1.33990570937500 3.18029550937500 
 S -2.95433127500000 4.66909570937500 3.21055650937500 
 S -3.53713527500000 0.850984709375001 7.22369850937500 
 S -3.31402127500000 4.94623070937500 7.29952450937500 
