16

 C -3.10224770000000 1.57925751250000 5.43376010312500 
 C -3.07801770000000 5.22445951250000 5.48747710312500 
 C -4.35671870000000 1.30494651250000 4.77101810312500 
 C -4.32016970000000 4.92361251250000 4.82511910312500 
 N -2.06149370000000 1.69894251250000 4.60488410312500 
 N -2.03511670000000 5.41976451250000 4.68711110312500 
 N -4.31479070000000 1.34519451250000 3.45262610312500 
 N -4.21967970000000 4.89293251250000 3.47766010312500 
 N -4.93442770000000 1.34148651250000 7.27270510312500 
 N -4.71765170000000 4.92816251250000 7.40604310312500 
 S -5.70417570000000 1.27961351250000 5.85423610312500 
 S -5.57998870000000 4.71942551250000 5.98773310312500 
 S -2.72366070000000 1.55159051250000 3.02791610312500 
 S -2.62131070000000 5.27807051250000 3.14836010312500 
 S -3.27624570000000 1.58674951250000 7.20759510312500 
 S -3.05093670000000 5.08619351250000 7.21666710312500 
