16

 C -2.94391947812500 1.20948988437500 5.29805775312500 
 C -2.92746347812500 5.10000188437500 5.61484775312500 
 C -4.16229647812500 0.708978884375004 4.60905075312500 
 C -4.18588347812500 4.53372088437500 5.12100175312500 
 N -2.01884447812500 1.66965888437500 4.48326175312500 
 N -1.99079347812500 5.35616588437500 4.69834275312500 
 N -4.03308947812500 0.698562884375003 3.28819675312500 
 N -4.13695647812500 4.22257488437500 3.82630675312500 
 N -4.72168047812500 0.640299884375003 7.13609775312500 
 N -4.37816547812500 5.00353888437500 7.66397775312500 
 S -5.38345547812500 0.260161884375004 5.70289075312500 
 S -5.38190647812500 4.51881688437500 6.39650575312500 
 S -2.60708547812500 1.40884288437500 2.88524175312500 
 S -2.70552247812500 4.84565388437500 3.28551675312500 
 S -3.19138647812500 1.24576788437500 7.05985475312500 
 S -2.78403247812500 5.30691888437500 7.27758275312500 
