16

 C -3.12390828750000 1.17224044375000 5.40229880312500 
 C -2.79305228750000 5.22153944375000 5.40030580312500 
 C -4.43092328750000 0.730681443750000 4.87594380312500 
 C -4.03541728750000 4.84658944375000 4.73122980312500 
 N -2.15406028750000 1.10345644375000 4.48677080312500 
 N -1.69359528750000 5.35754844375000 4.64894680312500 
 N -4.47698628750000 0.482910443750000 3.57454680312500 
 N -3.85618828750000 4.68186744375000 3.44169780312500 
 N -4.78339028750000 1.02524144375000 7.38059880312500 
 N -4.68721628750000 4.80834844375000 7.17075980312500 
 S -5.72038228750000 0.832477443750000 6.02436280312500 
 S -5.41642428750000 4.63581444375000 5.66804780312500 
 S -2.94152528750000 0.706450443750000 3.04827580312500 
 S -2.28540028750000 5.08163644375000 3.10561780312500 
 S -3.20207528750000 1.61141044375000 7.11811180312500 
 S -3.08046128750000 5.35772444375000 7.12061180312500 
