16

 C -2.90771075625000 1.24610254375000 5.46902466250000 
 C -2.90290975625000 5.06835454375000 5.69824966250000 
 C -4.07518075625000 0.725415543750001 4.74907366250000 
 C -4.17869575625000 4.67057654375000 5.14300166250000 
 N -1.85586275625000 1.35863154375000 4.66810066250000 
 N -1.89578875625000 5.16816754375000 4.83949866250000 
 N -3.85859875625000 0.556899543750000 3.45136466250000 
 N -4.16008275625000 4.54664154375000 3.81013466250000 
 N -4.83919175625000 0.971490543750001 7.19850466250000 
 N -4.49879875625000 4.82140754375000 7.68583266250000 
 S -5.45538675625000 0.438605543750000 5.75975266250000 
 S -5.31098475625000 4.24327854375000 6.35573666250000 
 S -2.27761475625000 0.872889543750000 3.08300766250000 
 S -2.62828775625000 4.86072254375000 3.37083566250000 
 S -3.27902775625000 1.58626954375000 7.12006766250000 
 S -2.94165775625000 5.38133854375000 7.35512866250000 
