16

 C -3.00050178750000 1.36861872812500 5.36073903750000 
 C -3.16534378750000 5.25662972812500 6.00544103750000 
 C -4.22683078750000 0.879867728125000 4.67561603750000 
 C -4.36272278750000 4.91123272812500 5.32316003750000 
 N -2.00960578750000 1.75069072812500 4.56944003750000 
 N -2.05018578750000 5.35938372812500 5.20676603750000 
 N -4.11152078750000 0.859910728125000 3.36697003750000 
 N -4.26001578750000 4.81128072812500 3.98805703750000 
 N -4.82958478750000 1.14907272812500 7.21089103750000 
 N -5.07276978750000 5.04789672812500 7.79733303750000 
 S -5.56701078750000 0.672307728125000 5.81367303750000 
 S -5.84482878750000 4.84635172812500 6.29567903750000 
 S -2.49117378750000 1.34496572812500 3.00872203750000 
 S -2.64895978750000 5.13358372812500 3.66667703750000 
 S -3.24045078750000 1.64791672812500 7.06389003750000 
 S -3.42361478750000 5.53493772812500 7.72421503750000 
