16

 C -2.98094601875000 1.44653706250000 5.27389875625000 
 C -3.08114501875000 5.16995206250000 5.48372875625000 
 C -4.16801401875000 0.902056062500000 4.74701475625000 
 C -4.29291501875000 4.60755006250000 4.93146675625000 
 N -1.89860501875000 1.58337606250000 4.45494175625000 
 N -2.09997401875000 5.30851206250000 4.59554075625000 
 N -3.94150701875000 0.654641062500000 3.45468975625000 
 N -4.12811101875000 4.27391706250000 3.66113375625000 
 N -4.43480801875000 1.12730006250000 7.31898475625000 
 N -4.88387801875000 4.93074706250000 7.39313475625000 
 S -5.36956301875000 0.661885062500000 6.07129575625000 
 S -5.59189301875000 4.33076306250000 5.95868675625000 
 S -2.48191001875000 1.20867106250000 2.97468975625000 
 S -2.63991001875000 4.68801906250000 3.16317075625000 
 S -2.97111001875000 1.75762806250000 6.98605375625000 
 S -3.29699101875000 5.44748106250000 7.19345675625000 
