16

 C -3.13768745937500 1.46881123125000 5.48600288125000 
 C -3.29522445937500 5.07742123125000 5.40322088125000 
 C -4.30876145937500 0.840032231250002 4.81294988125000 
 C -4.54297245937500 4.66374423125000 4.82610988125000 
 N -2.06457345937500 1.54057523125000 4.68992588125000 
 N -2.30575145937500 5.08377423125000 4.52201688125000 
 N -3.99708545937500 0.445851231250002 3.56520288125000 
 N -4.46056045937500 4.28406923125000 3.56097188125000 
 N -4.96537745937500 1.42517623125000 7.24577788125000 
 N -4.96934245937500 5.28425423125000 7.33015988125000 
 S -5.66841345937500 0.740587231250003 5.90512688125000 
 S -5.80018945937500 4.60511423125000 6.02901588125000 
 S -2.49652445937500 0.997322231250003 3.22313888125000 
 S -2.90596545937500 4.62000323125000 3.06906088125000 
 S -3.38439745937500 1.89071123125000 7.08413088125000 
 S -3.34728845937500 5.65228423125000 7.07568688125000 
