16

 C -2.94510469062500 1.57330543437500 5.36892436875000 
 C -3.49934769062500 5.02067943437500 5.17687536875000 
 C -4.06557769062500 0.997849434374997 4.71390836875000 
 C -4.60254169062500 4.33499943437500 4.60799436875000 
 N -1.84730469062500 1.70709843437500 4.62699236875000 
 N -2.39084569062500 5.13504443437500 4.40939036875000 
 N -3.91953769062500 0.793305434374997 3.36952836875000 
 N -4.36567869062500 3.92534043437500 3.36790736875000 
 N -4.78093769062500 1.40598443437500 7.24287136875000 
 N -5.39616769062500 5.08480743437500 6.89235236875000 
 S -5.37932269062500 0.779217434374996 5.84129736875000 
 S -5.94950469062500 4.08696643437500 5.73663636875000 
 S -2.28964669062500 1.11451043437500 3.16034436875000 
 S -2.79000469062500 4.42177543437500 2.99600636875000 
 S -3.29303769062500 2.07591143437500 7.07115136875000 
 S -3.86189469062500 5.69410343437500 6.73533236875000 
