16

 C -3.12443114375000 1.31534970000000 5.27273553437500 
 C -2.94637914375000 5.15881670000000 5.57798553437500 
 C -4.30542014375000 0.889024700000002 4.62566453437500 
 C -4.23434614375000 4.72693470000000 5.06993353437500 
 N -2.20790414375000 1.79513070000000 4.48932553437500 
 N -1.98206514375000 5.24334570000000 4.63330553437500 
 N -4.20522814375000 0.980705700000001 3.30332453437500 
 N -4.23566214375000 4.50929870000000 3.75487453437500 
 N -4.66276414375000 0.579080700000001 7.13725553437500 
 N -4.59427214375000 5.07796270000000 7.61794153437500 
 S -5.48893314375000 0.217491700000002 5.74553453437500 
 S -5.40429614375000 4.47485870000000 6.29914553437500 
 S -2.71673314375000 1.57749070000000 2.91672553437500 
 S -2.77038314375000 4.81882270000000 3.20288653437500 
 S -3.18180814375000 1.24728970000000 6.96252853437500 
 S -3.04350414375000 5.51169070000000 7.28671453437500 
