16

 C -3.15592823125000 1.53575816562500 5.48479659375000 
 C -3.02402323125000 5.04620616562500 5.54842759375000 
 C -4.45754723125000 1.54551816562500 4.89645059375000 
 C -4.30909223125000 4.84774016562500 4.89786059375000 
 N -2.17523123125000 1.61756616562500 4.57185459375000 
 N -2.04348623125000 5.26623016562500 4.67712859375000 
 N -4.46689723125000 1.60755216562500 3.56363059375000 
 N -4.31149423125000 4.88778816562500 3.58376659375000 
 N -4.85822923125000 1.53753316562500 7.49804659375000 
 N -4.70003723125000 4.52401016562500 7.36623859375000 
 S -5.73214723125000 1.43209416562500 6.08567459375000 
 S -5.51665023125000 4.35592916562500 5.95388959375000 
 S -2.83717623125000 1.66902016562500 3.06298559375000 
 S -2.74684323125000 5.25670516562500 3.17368859375000 
 S -3.20668523125000 1.68483716562500 7.26141659375000 
 S -3.14539023125000 4.97931816562500 7.31578259375000 
