16

 C -3.11248896562500 1.46284913750000 5.46504672812500 
 C -3.35922196562500 5.29210813750000 5.20205972812500 
 C -4.26655796562500 0.731398137500002 4.94524272812500 
 C -4.33038496562500 4.39240313750000 4.66654472812500 
 N -2.18579096562500 1.67638913750000 4.52813072812500 
 N -2.41271096562500 5.65499413750000 4.33560472812500 
 N -4.16890496562500 0.498126137500003 3.62454572812500 
 N -4.09896396562500 4.05508513750000 3.39762772812500 
 N -4.78924696562500 1.28383713750000 7.39637972812500 
 N -5.22002096562500 4.92823313750000 7.00995472812500 
 S -5.53382096562500 0.622316137500002 6.10218372812500 
 S -5.71355596562500 4.11110213750000 5.63896672812500 
 S -2.70017496562500 1.04305413750000 3.07951872812500 
 S -2.75002296562500 4.76108613750000 2.96700772812500 
 S -3.22929796562500 1.75174213750000 7.13458872812500 
 S -3.69592296562500 5.67025313750000 6.89428072812500 
