16

 C -3.27977761562500 1.17271948437500 5.23692330000000 
 C -2.98045361562500 5.04290548437500 5.39826530000000 
 C -4.51699761562500 0.779886484375002 4.54653930000000 
 C -4.17878261562500 4.46768948437500 4.81567530000000 
 N -2.20742561562500 1.32027548437500 4.45051630000000 
 N -1.94161461562500 5.27494448437500 4.59184130000000 
 N -4.33626961562500 0.556360484375001 3.23088730000000 
 N -3.94202461562500 3.96088248437500 3.61068130000000 
 N -5.16703861562500 1.38136648437500 7.00989030000000 
 N -4.85675361562500 5.09684548437500 7.20538730000000 
 S -5.91833861562500 0.895110484375001 5.63005830000000 
 S -5.54822561562500 4.44036548437500 5.87483330000000 
 S -2.73052761562500 0.923553484375002 2.91288730000000 
 S -2.44447461562500 4.59360348437500 3.16224130000000 
 S -3.52565561562500 1.72249948437500 6.85915030000000 
 S -3.26368761562500 5.56216348437500 7.04023630000000 
