16

 C -3.16049591875000 1.19301501250000 5.52944542812500 
 C -3.34145191875000 4.99622701250000 5.49655142812500 
 C -4.42028891875000 0.921120012499999 4.89933542812500 
 C -4.52046491875000 4.47553701250000 4.84108142812500 
 N -2.12865391875000 1.37568901250000 4.70875442812500 
 N -2.36267391875000 5.29127201250000 4.65645542812500 
 N -4.29811491875000 0.857824012499999 3.60256942812500 
 N -4.42057991875000 4.44176501250000 3.50076742812500 
 N -4.91678691875000 1.21572601250000 7.41608542812500 
 N -5.17387191875000 4.66172201250000 7.32393042812500 
 S -5.73979691875000 0.894441012499999 6.01716142812500 
 S -5.81463091875000 4.14351001250000 5.90041742812500 
 S -2.77160491875000 1.15322801250000 3.20358142812500 
 S -2.95064691875000 4.97801601250000 3.10485142812500 
 S -3.29234291875000 1.62272601250000 7.24217342812500 
 S -3.57134491875000 5.15270501250000 7.29654442812500 
