16

 C -3.19139834375000 1.32384241562500 5.35761205000000 
 C -3.18135734375000 5.00946741562500 5.44384205000000 
 C -4.31423034375000 0.559770415625000 4.85193005000000 
 C -4.48941634375000 4.67249241562500 4.93926805000000 
 N -2.22556234375000 1.57766241562500 4.49315905000000 
 N -2.18769634375000 5.05789941562500 4.54884905000000 
 N -4.17498634375000 0.312789415625000 3.55739105000000 
 N -4.44470434375000 4.38429441562500 3.64967605000000 
 N -4.87055434375000 1.24439541562500 7.36863805000000 
 N -4.79434734375000 4.85574441562500 7.47862105000000 
 S -5.56810234375000 0.368279415625000 6.14224405000000 
 S -5.75822834375000 4.68529341562500 6.13301705000000 
 S -2.70308334375000 0.875651415625000 3.03572705000000 
 S -2.91749934375000 4.71116841562500 3.08721205000000 
 S -3.40025434375000 1.89292341562500 7.01216005000000 
 S -3.26409134375000 5.33878441562500 7.10978805000000 
