16

 C -2.94188791562500 1.27120991875000 5.43089154062500 
 C -2.90637391562500 5.10167091875000 5.68306754062500 
 C -4.09805791562500 0.709009918750001 4.72062154062500 
 C -4.16437691562500 4.68537091875000 5.17051454062500 
 N -1.88460191562500 1.35179991875000 4.63818554062500 
 N -1.90479591562500 5.15891291875000 4.80978054062500 
 N -3.86725291562500 0.577788918750000 3.43923854062500 
 N -4.14520491562500 4.54658791875000 3.84828654062500 
 N -4.81412791562500 0.928546918750000 7.21684054062500 
 N -4.46260591562500 4.81440791875000 7.68456454062500 
 S -5.43416091562500 0.417633918750001 5.74438054062500 
 S -5.29266091562500 4.25787291875000 6.34307154062500 
 S -2.27465791562500 0.900701918750000 3.08014054062500 
 S -2.65650391562500 4.84877591875000 3.36043354062500 
 S -3.26920891562500 1.55738691875000 7.09451954062500 
 S -2.92461691562500 5.36750991875000 7.36893354062500 
