16

 C -2.84276613750000 1.15586055000000 5.47517486250000 
 C -3.01918113750000 5.11413855000000 5.62609886250000 
 C -4.10439213750000 0.926987550000000 4.82465686250000 
 C -4.20293613750000 4.61767655000000 4.99856786250000 
 N -1.84871813750000 1.29761155000000 4.67409186250000 
 N -1.97357113750000 5.44066255000000 4.88441586250000 
 N -4.01499813750000 0.779272550000000 3.52006586250000 
 N -3.95732513750000 4.42095855000000 3.69473186250000 
 N -4.55205213750000 1.23837455000000 7.26860686250000 
 N -4.77507213750000 4.82442755000000 7.47666186250000 
 S -5.40145113750000 0.854431550000000 5.90122286250000 
 S -5.50693413750000 4.24822355000000 6.10061286250000 
 S -2.39975913750000 1.19729755000000 3.16281286250000 
 S -2.44173013750000 4.93853055000000 3.37719286250000 
 S -2.93876713750000 1.49998755000000 7.14288986250000 
 S -3.21827613750000 5.40226255000000 7.30438486250000 
