16

 C -3.16656233125000 1.42705006250000 5.55810068437500 
 C -2.99963833125000 5.33070106250000 5.88684668437500 
 C -4.32656633125000 0.932927062499997 4.88697668437500 
 C -4.13523233125000 4.80502506250000 5.14149068437500 
 N -2.09837433125000 1.70495706250000 4.81044568437500 
 N -1.94430033125000 5.55422506250000 5.11800468437500 
 N -4.22339133125000 0.933056062499998 3.52610968437500 
 N -3.93901033125000 4.60233206250000 3.84394668437500 
 N -4.86690733125000 0.994878062499997 7.44164268437500 
 N -4.80534033125000 4.86385306250000 7.62397668437500 
 S -5.70191033125000 0.710169062499998 5.98054168437500 
 S -5.55328733125000 4.79432706250000 6.17498268437500 
 S -2.63639633125000 1.35174406250000 3.29158268437500 
 S -2.38493833125000 5.10755406250000 3.55884868437500 
 S -3.28215433125000 1.49443006250000 7.30449568437500 
 S -3.19629633125000 5.28691606250000 7.61521868437500 
