16

 C -3.06587770625000 1.51451178125000 5.74241553437500 
 C -3.06434370625000 5.19465178125000 5.81855053437500 
 C -4.17832270625000 1.03044578125000 5.07179153437500 
 C -4.30852870625000 4.96304378125000 5.12653553437500 
 N -2.03444470625000 1.61412078125000 4.90880753437500 
 N -1.99604770625000 5.26313978125000 5.03592953437500 
 N -4.12421770625000 0.866890781249998 3.77925753437500 
 N -4.15346170625000 4.87629178125000 3.80337653437500 
 N -4.94205270625000 1.38244278125000 7.42986953437500 
 N -4.86639970625000 5.10986378125000 7.60347953437500 
 S -5.55273670625000 0.702229781249998 6.02028753437500 
 S -5.66465870625000 4.76170278125000 6.22037753437500 
 S -2.54978870625000 1.23672378125000 3.40609653437500 
 S -2.53150770625000 5.15567278125000 3.50702453437500 
 S -3.29907570625000 1.88309678125000 7.40292653437500 
 S -3.28142770625000 5.48010678125000 7.51681053437500 
