16

 C -3.55058790000000 1.78524569062500 5.33335588750000 
 C -3.24974090000000 4.99519269062500 5.70230888750000 
 C -4.63986890000000 1.19243069062500 4.60737988750000 
 C -4.49290390000000 4.83402069062500 5.00739988750000 
 N -2.48946890000000 2.04668969062500 4.61552288750000 
 N -2.21186090000000 5.19237669062500 4.86982488750000 
 N -4.35184090000000 0.910915690624998 3.37061688750000 
 N -4.36250090000000 4.65801069062500 3.68730788750000 
 N -5.40073390000000 1.37813769062500 7.07605688750000 
 N -4.95261590000000 5.02252069062500 7.61915088750000 
 S -5.91032590000000 0.776442690624998 5.65406888750000 
 S -5.78713590000000 4.74843969062500 6.15635188750000 
 S -2.78022090000000 1.57181169062500 3.07336988750000 
 S -2.79089990000000 4.87090469062500 3.35104688750000 
 S -3.83485290000000 1.89731969062500 7.08886688750000 
 S -3.29409390000000 5.24608969062500 7.40258688750000 
