16

 C -3.28977305000000 1.49638124375000 5.62383977187500 
 C -3.52156305000000 5.29817724375000 5.58441477187500 
 C -4.48818905000000 0.985639243750002 5.03294977187500 
 C -4.64096605000000 4.64325624375000 4.86852077187500 
 N -2.31330405000000 1.76006624375000 4.76566277187500 
 N -2.56763105000000 5.63086324375000 4.78582177187500 
 N -4.43027305000000 0.802243243750002 3.71528277187500 
 N -4.44866105000000 4.40108024375000 3.57704277187500 
 N -4.93488205000000 1.07327224375000 7.54822777187500 
 N -5.26468505000000 4.81683724375000 7.45822777187500 
 S -5.74277005000000 0.664213243750002 6.18424177187500 
 S -5.92838305000000 4.22314624375000 6.03003177187500 
 S -2.91169205000000 1.44867124375000 3.29589477187500 
 S -2.96576905000000 5.15742124375000 3.21579077187500 
 S -3.32043505000000 1.52010624375000 7.34842477187500 
 S -3.74458105000000 5.48842124375000 7.32018177187500 
