16

 C -3.14921652812500 1.46009269687500 5.31826764062500 
 C -3.12332052812500 5.25448769687500 5.53190664062500 
 C -4.37611052812500 0.978910696875000 4.61308864062500 
 C -4.40247552812500 4.75260469687500 4.96378364062500 
 N -2.16945752812500 1.80025169687500 4.45125064062500 
 N -2.10410852812500 5.33191669687500 4.71103864062500 
 N -4.32690252812500 0.985404696875000 3.27880864062500 
 N -4.33081952812500 4.60511269687500 3.64660264062500 
 N -4.73781052812500 0.530291696875000 7.20489764062500 
 N -4.64545852812500 5.01351169687500 7.53182764062500 
 S -5.54327352812500 0.310459696875000 5.73057464062500 
 S -5.58144352812500 4.45622169687500 6.23425564062500 
 S -2.84454252812500 1.57865069687500 2.88412664062500 
 S -2.73254852812500 4.93768369687500 3.22979164062500 
 S -3.26995252812500 1.35050869687500 7.07304264062500 
 S -3.11919152812500 5.59347569687500 7.23673764062500 
