16

 C -3.25154567812500 1.09851952500000 5.45093149687500 
 C -2.82310367812500 5.11622652500000 5.45637549687500 
 C -4.51429667812500 0.660272525000003 4.94098449687500 
 C -3.97111567812500 4.76923252500000 4.66973049687500 
 N -2.25238367812500 1.18940652500000 4.55448049687500 
 N -1.73433867812500 5.34226952500000 4.73338949687500 
 N -4.55752867812500 0.463294525000002 3.59549049687500 
 N -3.82200167812500 4.85824652500000 3.35167949687500 
 N -4.79509567812500 1.35785352500000 7.43677549687500 
 N -4.76456667812500 5.07297952500000 7.19221349687500 
 S -5.70442067812500 0.631249525000002 6.23364849687500 
 S -5.39457767812500 4.65812252500000 5.70576149687500 
 S -3.00367967812500 0.831312525000002 3.11221749687500 
 S -2.17360367812500 5.16362352500000 3.12908249687500 
 S -3.12964167812500 1.34510152500000 7.18340549687500 
 S -3.10555767812500 5.15190052500000 7.18268649687500 
