16

 C -3.13373813750000 0.857794506249999 5.61372519687500 
 C -3.05447213750000 5.12296950625000 5.39094619687500 
 C -4.37113013750000 0.700948506249999 4.86036419687500 
 C -4.23499013750000 4.58030450625000 4.73931519687500 
 N -2.03241113750000 0.926425506249998 4.90866219687500 
 N -1.98957913750000 5.11500850625000 4.59571119687500 
 N -4.21695313750000 0.743006506249999 3.53225119687500 
 N -4.11982313750000 4.42347150625000 3.42241919687500 
 N -5.08748213750000 0.589810506249999 7.41896219687500 
 N -4.96108013750000 4.70861850625000 7.23975219687500 
 S -5.75479513750000 0.378981506249999 5.90565219687500 
 S -5.57513413750000 4.15352550625000 5.76025619687500 
 S -2.54812913750000 0.928827506249998 3.28656619687500 
 S -2.53740113750000 4.64414550625000 3.03339619687500 
 S -3.49760613750000 0.937444506249999 7.32875819687500 
 S -3.33871013750000 5.31209550625000 7.10150119687500 
