16

 C -3.09431889375000 1.09275985937500 5.40960975312500 
 C -3.10382489375000 4.76307285937500 5.52353475312500 
 C -4.30044189375000 0.603021859375001 4.78193775312500 
 C -4.42389289375000 4.73200585937500 4.91862575312500 
 N -2.11354189375000 1.43454885937500 4.57447575312500 
 N -2.13277489375000 4.57830485937500 4.59594575312500 
 N -4.29016989375000 0.541971859375001 3.46470675312500 
 N -4.44907389375000 4.55946485937500 3.60542675312500 
 N -4.84017889375000 0.584641859375001 7.29200575312500 
 N -4.82442789375000 4.99795985937500 7.38919075312500 
 S -5.61221189375000 0.229724859375001 5.85893275312500 
 S -5.74976789375000 4.86494985937500 6.02260475312500 
 S -2.72141289375000 1.04912085937500 3.07042175312500 
 S -2.80375989375000 4.42556085937500 3.11791375312500 
 S -3.25523889375000 0.967592859375000 7.20876675312500 
 S -3.17333689375000 4.84444085937500 7.27214775312500 
