16

 C -3.71633482500000 1.19583859375000 5.61320039687500 
 C -3.03372582500000 5.04912559375000 5.40588539687500 
 C -4.82983482500000 0.596108593750000 4.89835239687500 
 C -4.19457382500000 4.40423259375000 4.84478539687500 
 N -2.66092282500000 1.43675259375000 4.84931439687500 
 N -2.02263282500000 5.15925059375000 4.56776339687500 
 N -4.56399182500000 0.323176593750000 3.59870739687500 
 N -4.05422782500000 4.11316659375000 3.53872339687500 
 N -5.33949282500000 0.540474593750000 7.40417239687500 
 N -4.66614582500000 4.85450859375000 7.32261439687500 
 S -6.12259982500000 0.214187593750000 5.98025039687500 
 S -5.51951682500000 4.37332359375000 5.97497739687500 
 S -3.09708882500000 0.977894593750000 3.34701639687500 
 S -2.57247482500000 4.60006559375000 3.09500639687500 
 S -3.80955182500000 1.15988659375000 7.30766839687500 
 S -3.12124682500000 5.39400959375000 7.08212339687500 
