16

 C -2.88332908125000 2.01053573437500 5.57330134375000 
 C -3.18638208125000 5.42709673437500 5.31614434375000 
 C -4.10846308125000 1.63870773437500 4.95594834375000 
 C -4.29844208125000 4.80377973437500 4.63860634375000 
 N -1.91829908125000 2.19371073437500 4.68287734375000 
 N -2.21385808125000 5.81129673437500 4.51989234375000 
 N -4.09105908125000 1.57023873437500 3.64511234375000 
 N -4.11095808125000 4.63644673437500 3.35515934375000 
 N -4.59874308125000 1.66547073437500 7.41375334375000 
 N -4.94131008125000 5.03476573437500 7.15877834375000 
 S -5.45079408125000 1.41219473437500 6.01782434375000 
 S -5.61895808125000 4.60128473437500 5.75049234375000 
 S -2.48902508125000 1.84239073437500 3.17036134375000 
 S -2.64415508125000 5.28507873437500 2.97888634375000 
 S -3.06272908125000 2.20276873437500 7.27560534375000 
 S -3.31212408125000 5.33948873437500 7.00857634375000 
