16

 C -3.32384506562500 1.43612379687500 5.63455104375000 
 C -3.56139706562500 5.24133579687500 5.58205504375000 
 C -4.51427706562500 0.951260796874998 5.00805604375000 
 C -4.68407206562500 4.68199879687500 4.86531604375000 
 N -2.32586406562500 1.79889479687500 4.79429504375000 
 N -2.56530306562500 5.61647879687500 4.74373604375000 
 N -4.40865906562500 0.797298796874998 3.69059404375000 
 N -4.44347606562500 4.38720379687500 3.56343004375000 
 N -4.93030306562500 1.04453879687500 7.54582904375000 
 N -5.26256106562500 4.85907879687500 7.38554104375000 
 S -5.72919306562500 0.619529796874999 6.15909204375000 
 S -5.92377906562500 4.19597279687500 6.00848104375000 
 S -2.89522306562500 1.39881879687500 3.31921004375000 
 S -2.96205206562500 5.14354579687500 3.22672104375000 
 S -3.28301906562500 1.54139479687500 7.37287404375000 
 S -3.77286606562500 5.51011579687500 7.28714004375000 
