16

 C -3.09461320937500 1.36291700000000 5.55148772500000 
 C -3.62373820937500 4.87075699999999 5.02991072500000 
 C -4.35032320937500 0.898041999999995 5.00497972500000 
 C -4.73436120937500 4.18528699999999 4.43997072500000 
 N -2.11689320937500 1.45629900000000 4.65158372500000 
 N -2.61643920937500 5.16184900000000 4.21238872500000 
 N -4.28898620937500 0.578089999999995 3.73235972500000 
 N -4.57439620937500 3.93738999999999 3.14827672500000 
 N -4.76680920937500 0.890662999999995 7.60061072500000 
 N -5.32686520937500 4.51756299999999 7.00790472500000 
 S -5.62541120937500 0.458255999999995 6.22173372500000 
 S -5.99509220937500 3.81802199999999 5.58972572500000 
 S -2.82120820937500 1.06974599999999 3.16941372500000 
 S -3.06560720937500 4.60259600000000 2.73242072500000 
 S -3.27599120937500 1.61922999999999 7.31012972500000 
 S -3.82866020937500 5.27774599999999 6.72765572500000 
