16

 C -3.41844009062500 1.61426470625000 5.42567656875000 
 C -3.16530109062500 5.73185970625000 5.61216456875000 
 C -4.52694709062500 0.941855706249999 4.82031956875000 
 C -4.15777509062500 4.91797870625000 4.98847256875000 
 N -2.33223509062500 1.63858370625000 4.71830556875000 
 N -2.16442209062500 6.08379270625000 4.78370556875000 
 N -4.27202709062500 0.476089706249999 3.60943456875000 
 N -4.00976309062500 4.78390270625000 3.64112156875000 
 N -5.13290009062500 1.17679770625000 7.29233556875000 
 N -4.83379909062500 5.10563670625000 7.43793856875000 
 S -5.83622809062500 0.785802706249999 5.84105256875000 
 S -5.48245309062500 4.57000270625000 6.03455056875000 
 S -2.69222609062500 1.01336570625000 3.25735856875000 
 S -2.59137309062500 5.50309070625000 3.26377156875000 
 S -3.53861809062500 1.54968970625000 7.18373256875000 
 S -3.31344009062500 5.72193070625000 7.38901356875000 
