16

 C -2.74239361562500 1.22027816875000 5.42105208750000 
 C -2.99370461562500 5.17137916875000 5.66244808750000 
 C -4.04915161562500 0.899190168749998 4.84934608750000 
 C -4.13528261562500 4.55450916875000 5.03040208750000 
 N -1.77684161562500 1.42483116875000 4.55443308750000 
 N -1.95628061562500 5.39130916875000 4.86401508750000 
 N -4.07356561562500 1.00233216875000 3.53499808750000 
 N -4.07142561562500 4.49488816875000 3.69571208750000 
 N -4.58757161562500 1.28889316875000 7.37653208750000 
 N -4.85674261562500 4.91276516875000 7.45316808750000 
 S -5.40565361562500 0.971808168749997 5.96417208750000 
 S -5.47158461562500 4.25951416875000 6.02535408750000 
 S -2.50979261562500 1.24332316875000 3.00946408750000 
 S -2.48793061562500 4.97857316875000 3.34037108750000 
 S -2.90552561562500 1.58488316875000 7.15529708750000 
 S -3.28014261562500 5.40555116875000 7.41574408750000 
