16

 C -3.05630621875000 1.26461014375000 5.70451314687500 
 C -3.24404221875000 5.30569814375000 5.33251814687500 
 C -4.17998021875000 0.664206143749998 4.97255814687500 
 C -4.30716921875000 4.48009814375000 4.84896014687500 
 N -2.04704821875000 1.52444714375000 4.87414814687500 
 N -2.27611421875000 5.57658714375000 4.46490414687500 
 N -3.98479621875000 0.454900143749998 3.67421614687500 
 N -3.97085521875000 3.86594814375000 3.73760914687500 
 N -4.88023321875000 1.07433814375000 7.43777414687500 
 N -5.04079221875000 5.09783314375000 7.24576114687500 
 S -5.49772921875000 0.304312143749997 6.03336914687500 
 S -5.52330121875000 4.13812614375000 6.02562514687500 
 S -2.47738621875000 0.936916143749998 3.33337814687500 
 S -2.60954621875000 4.59470814375000 3.15554414687500 
 S -3.30030721875000 1.63176014375000 7.42676414687500 
 S -3.61562121875000 5.88164014375000 6.98962014687500 
