16

 C -3.48576246562500 1.26981083750000 5.79473450937500 
 C -3.27972346562500 5.15188283750000 5.34876750937500 
 C -4.56761346562500 0.830117837499998 4.95083050937500 
 C -4.51956446562500 4.67979983750000 4.78309250937500 
 N -2.36715946562500 1.65104583750000 5.17472350937500 
 N -2.29353446562500 5.44739983750000 4.50332550937500 
 N -4.23322846562500 0.706121837499998 3.65449750937500 
 N -4.38426946562500 4.44236383750000 3.49220250937500 
 N -5.48084446562500 0.916490837499998 7.38837650937500 
 N -4.93115746562500 4.84555283750000 7.33639050937500 
 S -6.04889046562500 0.584690837499998 5.84071950937500 
 S -5.81529246562500 4.43989683750000 6.00829950937500 
 S -2.62550146562500 1.15355183750000 3.60982250937500 
 S -2.87157746562500 4.86459983750000 3.01866650937500 
 S -3.91890346562500 1.52210783750000 7.44296850937500 
 S -3.33920446562500 5.32302183750000 7.05867650937500 
