16

 C -3.18195356875000 1.46760095937500 5.44755999687500 
 C -2.99106656875000 5.10324695937500 5.50004699687500 
 C -4.46362556875000 1.41012795937500 4.85163299687500 
 C -4.27909556875000 4.86854595937500 4.89086399687500 
 N -2.17027056875000 1.57854495937500 4.63125499687500 
 N -1.97311556875000 5.35038695937500 4.67543199687500 
 N -4.40343156875000 1.46384795937500 3.54090299687500 
 N -4.26391256875000 5.03703795937500 3.57768499687500 
 N -4.87160056875000 1.46399995937500 7.32841799687500 
 N -4.74245456875000 4.74817495937500 7.45529099687500 
 S -5.77426756875000 1.34977995937500 5.93654199687500 
 S -5.57402456875000 4.46252395937500 6.00517499687500 
 S -2.73562256875000 1.67504895937500 3.09600999687500 
 S -2.65133356875000 5.28973395937500 3.11925599687500 
 S -3.21156156875000 1.64386995937500 7.11605299687500 
 S -3.10406156875000 5.03712795937500 7.23169999687500 
