16

 C -3.31058048437500 1.28262138125000 5.53997992812500 
 C -3.37910948437500 4.69704738125000 5.30030292812500 
 C -4.48591048437500 0.686233381249999 4.88196492812500 
 C -4.65498048437500 4.47517438125000 4.64525692812500 
 N -2.25652848437500 1.55169538125000 4.78917392812500 
 N -2.39533248437500 5.09608538125000 4.48477992812500 
 N -4.31515148437500 0.581828381249999 3.57999292812500 
 N -4.52641748437500 4.48251238125000 3.33107092812500 
 N -5.06094648437500 0.972217381249999 7.37118492812500 
 N -5.13082348437500 4.63693538125000 7.13486992812500 
 S -5.73382748437500 0.238398381249999 5.97475792812500 
 S -5.99190048437500 4.46749038125000 5.74114692812500 
 S -2.78692648437500 1.16877138125000 3.26816492812500 
 S -2.99945648437500 4.97578838125000 2.93166092812500 
 S -3.45766048437500 1.43372238125000 7.20177292812500 
 S -3.53081348437500 4.96275738125000 6.98462592812500 
