16

 C -2.67475026562500 1.65329448750000 5.33430282187500 
 C -3.38235926562500 5.09010548750000 5.62302482187500 
 C -3.77310226562500 0.885108487500001 4.79117682187500 
 C -4.47056326562500 4.46421748750000 4.90279782187500 
 N -1.83852126562500 2.04567748750000 4.41512982187500 
 N -2.35914826562500 5.39067048750000 4.83836082187500 
 N -3.80205426562500 0.749964487500000 3.49224782187500 
 N -4.40188226562500 4.54361048750000 3.58936782187500 
 N -4.18466826562500 1.04486248750000 7.30892082187500 
 N -5.01691726562500 4.39004748750000 7.41476682187500 
 S -4.99904026562500 0.566263487500001 5.93542282187500 
 S -5.79752426562500 4.02914548750000 5.96316882187500 
 S -2.45857326562500 1.52171048750000 2.94465682187500 
 S -2.86890426562500 5.06909948750000 3.27232782187500 
 S -2.80613126562500 1.94105748750000 7.09773082187500 
 S -3.54155126562500 5.06530348750000 7.28768182187500 
