16

 C -3.03675592500000 1.40666219687500 5.30306007187500 
 C -3.30505692500000 4.93070419687500 5.49189107187500 
 C -4.23034492500000 0.867415196874999 4.78850107187500 
 C -4.47623092500000 4.42509619687500 4.84154607187500 
 N -2.04040692500000 1.63029019687500 4.43376507187500 
 N -2.33153692500000 5.27760619687500 4.67498107187500 
 N -4.25476692499999 0.808606196874999 3.47577807187500 
 N -4.38427992500000 4.34863619687500 3.50687007187500 
 N -4.77401492500000 1.07476619687500 7.33720307187500 
 N -5.01736592499999 4.54726419687500 7.42014607187500 
 S -5.59241492500000 0.749339196875000 5.94650907187500 
 S -5.74215392500000 4.07272619687500 6.01293207187500 
 S -2.78574992500000 1.32827019687500 2.93734307187500 
 S -2.90164892500000 5.06566219687500 3.13921007187500 
 S -3.24222692500000 1.66976919687500 7.08555007187500 
 S -3.43170192500000 5.03353619687500 7.24867207187500 
