16

 C -2.86494530312500 1.31111975000000 5.46837960625000 
 C -3.04671630312500 5.22861474999999 5.61593860625000 
 C -4.06886430312500 0.861771749999996 4.79186560625000 
 C -4.13784030312500 4.55465174999999 4.97228560625000 
 N -1.78476630312500 1.33946474999999 4.70878760625000 
 N -1.98897530312500 5.39824575000000 4.83304260625000 
 N -3.90144330312500 0.700969749999995 3.47460460625000 
 N -3.97007730312500 4.30256474999999 3.66227060625000 
 N -4.73560030312500 1.11271575000000 7.41412160625000 
 N -4.72450430312500 4.67887774999999 7.51879260625000 
 S -5.47600730312500 0.761112749999995 5.92493860625000 
 S -5.46264330312500 4.32810174999999 6.08171360625000 
 S -2.34783630312500 1.00790975000000 3.12002160625000 
 S -2.42045230312500 4.91070475000000 3.30203060625000 
 S -3.09063930312500 1.36729375000000 7.24774360625000 
 S -3.20582930312500 5.40165475000000 7.38197060625000 
