16

 C -3.73467654687500 1.21632399062500 5.60392250625000 
 C -3.01996654687500 5.04070599062500 5.37265350625000 
 C -4.81941154687500 0.555674990624997 4.98404950625000 
 C -4.22553054687500 4.45272799062500 4.83252050625000 
 N -2.68806354687500 1.46132299062500 4.85375050625000 
 N -2.02472754687500 5.11521899062500 4.48657650625000 
 N -4.64628654687500 0.354671990624997 3.71598950625000 
 N -4.15210654687500 4.05395699062500 3.56824650625000 
 N -5.40895154687500 0.564604990624996 7.38029450625000 
 N -4.72350354687500 4.88874699062500 7.31593750625000 
 S -6.17443754687500 0.176306990624997 5.90209150625000 
 S -5.48044654687500 4.32863099062500 5.93115150625000 
 S -3.16305654687500 1.03553499062500 3.33287050625000 
 S -2.63459154687500 4.55941599062500 3.04212450625000 
 S -3.84366854687500 1.16775199062500 7.32663450625000 
 S -3.12884454687500 5.42606799062500 7.11127550625000 
