16

 C -3.03169225937500 1.42859522187500 5.52650295937500 
 C -3.02988525937500 4.92126022187500 5.27333495937500 
 C -4.20998225937500 0.962670221874999 4.89304995937500 
 C -4.30320125937500 4.77733722187500 4.64234595937500 
 N -1.98300025937500 1.50025222187500 4.71716695937500 
 N -1.98460025937500 4.70585622187500 4.46917695937500 
 N -4.08164425937500 0.708034221874999 3.55180695937500 
 N -4.28052525937500 4.59250722187500 3.30028195937500 
 N -4.82612225937500 1.31236122187500 7.35614095937500 
 N -4.68845825937500 5.25739422187500 7.17806895937500 
 S -5.62199325937500 0.923161221874999 5.96113795937500 
 S -5.58129325937500 4.86784922187500 5.78575895937500 
 S -2.42682525937500 1.05099722187500 3.24098995937500 
 S -2.64335425937500 4.58392522187500 2.94710195937500 
 S -3.27073225937500 1.83773422187500 7.16741595937500 
 S -3.00899025937500 5.32167222187500 6.93342095937500 
