16

 C -3.01702061875000 1.37640368125000 5.31802222812500 
 C -3.26651161875000 5.17989768125000 5.65127222812500 
 C -4.31614961875000 0.992204681249997 4.80927822812500 
 C -4.46340561875000 4.71892868125000 5.00440922812500 
 N -2.07006461875000 1.38074968125000 4.36602322812500 
 N -2.24536461875000 5.37514468125000 4.89360622812500 
 N -4.33133261875000 0.628867681249997 3.52033722812500 
 N -4.29882561875000 4.56894268125000 3.67962922812500 
 N -4.82026961875000 1.51242768125000 7.21408522812500 
 N -4.81533861875000 4.82907068125000 7.59799522812500 
 S -5.64511961875000 1.06175468125000 5.81171822812500 
 S -5.77555561875000 4.58433268125000 6.26626222812500 
 S -2.80300061875000 0.731725681249997 2.93833222812500 
 S -2.72222461875000 4.97208168125000 3.32511722812500 
 S -3.14294461875000 1.72419768125000 7.07421022812500 
 S -3.18103361875000 5.25606068125000 7.38194822812500 
