16

 C -2.87976366562500 1.49400288125000 5.33988118437500 
 C -3.14133166562500 5.08095288125000 5.45161718437500 
 C -4.18685866562500 1.16477288125000 4.68126518437500 
 C -4.31320366562500 4.59491088125000 4.79364518437500 
 N -1.90894166562500 1.59947588125000 4.40823718437500 
 N -2.11604566562500 5.29661888125000 4.60642018437500 
 N -4.05360166562500 0.900610881250000 3.40154218437500 
 N -4.14560566562500 4.34117388125000 3.48653218437500 
 N -4.75785766562500 1.19278288125000 7.24928018437500 
 N -4.86057566562500 4.70000888125000 7.34009618437500 
 S -5.51774766562500 1.02741788125000 5.79743918437500 
 S -5.56410666562500 4.17030688125000 5.92379918437500 
 S -2.51773866562500 1.32710488125000 2.89597318437500 
 S -2.60713866562500 4.89289888125000 3.10317218437500 
 S -3.16632366562500 1.62400188125000 7.08252018437500 
 S -3.26228766562500 5.28288488125000 7.24069918437500 
