16

 C -3.04174639375000 1.25594041562500 5.71927298437500 
 C -3.22560739375000 5.30660141562500 5.35836598437500 
 C -4.17576839375000 0.675846415624999 4.98934398437500 
 C -4.28591639375000 4.48256141562500 4.86509698437500 
 N -2.05617039375000 1.52547441562500 4.86910498437500 
 N -2.25698939375000 5.58044741562500 4.47128198437500 
 N -3.99563739375000 0.473420415624999 3.66977998437500 
 N -3.97027439375000 3.86145241562500 3.73206598437500 
 N -4.88416239375000 1.06614641562500 7.43388298437500 
 N -5.01505039375000 5.10581841562500 7.22895198437500 
 S -5.49951839375000 0.314894415624999 6.02311698437500 
 S -5.51804139375000 4.13227341562500 6.03807398437500 
 S -2.46611239375000 0.930077415624999 3.34037798437500 
 S -2.60310839375000 4.57808541562500 3.16232598437500 
 S -3.28652839375000 1.63219441562500 7.41443098437500 
 S -3.60229139375000 5.88074041562500 6.97397998437500 
