16

 C -3.13035349375000 1.35018667187499 5.90627815937500 
 C -3.09938649375000 4.92037967187499 5.69787515937500 
 C -4.36641649375000 0.918186671874994 5.32062515937500 
 C -4.25159549375000 4.44771667187500 5.01067515937500 
 N -2.26223649375000 1.58959867187499 4.93327415937500 
 N -2.00824849375000 5.27365667187499 4.95322915937500 
 N -4.39364149375000 0.728586671874996 4.03847015937500 
 N -4.03928849375000 4.40687467187500 3.68970915937500 
 N -4.91848549375000 1.32761967187499 7.77253015937500 
 N -4.87278149375000 4.88224667187500 7.58049915937500 
 S -5.73397449375000 1.07304467187500 6.38080115937500 
 S -5.62773849375000 4.42095267187500 6.12018515937500 
 S -2.94610349375000 1.08411967187500 3.45456315937500 
 S -2.53442449375000 5.03772767187500 3.41831915937500 
 S -3.34197849375000 1.78188767187499 7.67856715937500 
 S -3.19064749375000 5.20595767187500 7.35059115937500 
