16

 C -3.16617345937500 0.801563768750000 5.65980711562500 
 C -2.99852545937500 5.08541476875000 5.43218911562500 
 C -4.38369045937500 0.539257768750001 4.87905011562500 
 C -4.20900845937500 4.67700076875000 4.73288911562500 
 N -2.13045845937500 1.07683476875000 4.91771211562500 
 N -1.96462345937500 5.26319976875000 4.60778611562500 
 N -4.19917745937500 0.631114768750001 3.57823311562500 
 N -4.02256145937500 4.35062276875000 3.44279011562500 
 N -5.10809045937500 0.683296768750001 7.30612111562500 
 N -4.79414445937500 4.79584076875000 7.19798511562500 
 S -5.82756845937500 0.336484768750000 5.81635311562500 
 S -5.47217645937500 4.21999076875000 5.80729011562500 
 S -2.60551045937500 0.916746768750000 3.37413811562500 
 S -2.43096045937500 4.70406476875000 3.15621611562500 
 S -3.45125545937500 0.985204768750000 7.41777511562500 
 S -3.23096745937500 5.19429276875000 7.17911811562500 
