16

 C -3.30005018125000 1.06152183437500 5.68752554375000 
 C -2.88086118125000 4.99493683437500 5.52085554375000 
 C -4.49100818125000 0.575122834375000 4.95143854375000 
 C -4.03975318125000 4.46981983437500 4.88762454375000 
 N -2.27871918125000 1.45113883437500 4.88078054375000 
 N -1.87764218125000 5.30766583437500 4.70562254375000 
 N -4.27432318125000 0.419991834375000 3.62235554375000 
 N -3.93411118125000 4.32452183437500 3.56986454375000 
 N -5.13497418125000 0.713755834375000 7.48920154375000 
 N -4.71127418125000 4.66932883437500 7.40160254375000 
 S -5.85113418125000 0.355011834375000 5.97811554375000 
 S -5.40225318125000 4.36911183437500 5.91993254375000 
 S -2.65043718125000 0.854975834375000 3.35203154375000 
 S -2.45446318125000 4.91183283437500 3.13255254375000 
 S -3.49252718125000 1.12286983437500 7.46933854375000 
 S -3.11066618125000 5.22622583437500 7.26588754375000 
