16

 C -3.23105039687500 1.11069350312499 5.22662812187500 
 C -3.13743439687500 5.05639350312499 5.61712912187500 
 C -4.50230339687500 0.855015503124994 4.63679212187500 
 C -4.42590239687500 4.64248450312499 5.06833412187500 
 N -2.22803739687500 1.11014650312499 4.40934512187500 
 N -2.21922339687500 5.24220450312500 4.66516612187500 
 N -4.47871339687500 0.664664503124994 3.32050512187500 
 N -4.48935839687500 4.58386750312499 3.74642412187500 
 N -4.81406139687500 1.61653050312500 7.19161212187500 
 N -4.92863339687500 4.88999150312499 7.49766512187500 
 S -5.69405539687500 0.903669503124995 5.94546412187500 
 S -5.69638239687500 4.44802350312500 6.16495812187500 
 S -2.84861739687500 0.876132503124994 2.90231012187500 
 S -3.03349139687500 4.97549450312499 3.14458612187500 
 S -3.18437439687500 1.69539150312499 6.77630912187500 
 S -3.28058539687500 5.23669050312499 7.41409012187500 
