16

 C -3.21558050937500 1.27586955312500 5.56591215000000 
 C -3.28503050937500 5.04863455312500 5.42382215000000 
 C -4.45283350937500 1.15276055312500 4.86391215000000 
 C -4.53415550937500 4.68098655312500 4.78975915000000 
 N -2.17153250937500 1.22066655312500 4.76964315000000 
 N -2.21418650937500 4.97316755312500 4.69503615000000 
 N -4.29339850937500 0.854281553124999 3.58078815000000 
 N -4.37709750937500 4.41226455312500 3.49174815000000 
 N -5.01608050937500 1.35638455312500 7.37639715000000 
 N -5.00310350937500 5.06101555312500 7.29838415000000 
 S -5.78019750937500 1.39343655312500 5.89528015000000 
 S -5.79553650937500 4.45593055312500 5.94515715000000 
 S -2.67574450937500 0.959129553125000 3.20878815000000 
 S -2.76690250937500 4.45944855312500 3.14053515000000 
 S -3.34670550937500 1.40467655312500 7.24917915000000 
 S -3.42374950937500 5.59157355312500 7.09809215000000 
