16

 C -3.15522466875000 1.36192176562500 5.56835295625000 
 C -3.06142466875000 5.09356476562500 5.59701095625000 
 C -4.37163666875000 0.831832765625001 4.95438195625000 
 C -4.23964066875000 4.50330876562500 4.99098995625000 
 N -2.14127366875000 1.43853376562500 4.68855095625000 
 N -2.08410966875000 5.35014976562500 4.71282495625000 
 N -4.24268566875000 0.579507765625001 3.67003095625000 
 N -4.23162066875000 4.51634676562500 3.67650595625000 
 N -4.88482366875000 1.16511176562500 7.44602795625000 
 N -4.92099266875000 4.70342676562500 7.48177795625000 
 S -5.70796366875000 0.665921765625001 6.03273795625000 
 S -5.69636266875000 4.38984776562500 5.97969495625000 
 S -2.76582066875000 1.08248476562500 3.20348595625000 
 S -2.76827966875000 5.09797076562500 3.21779695625000 
 S -3.28069166875000 1.52932276562500 7.25721095625000 
 S -3.24795766875000 5.14641976562500 7.34146495625000 
