16

 C -3.27386225625000 1.30071067500000 5.36835585937500 
 C -3.18555925625000 5.38023367500000 5.72014085937500 
 C -4.42940125625000 0.707302675000000 4.80334285937500 
 C -4.36105925625000 5.19190167500000 4.93058185937500 
 N -2.30799125625000 1.63371067500000 4.51757885937500 
 N -2.07637825625000 5.59933367500000 5.04195185937500 
 N -4.32080825625000 0.570893675000001 3.47721385937500 
 N -4.15132925625000 5.01212367500000 3.63121785937500 
 N -5.13954925625000 1.16506667500000 7.17787385937500 
 N -5.18341825625000 5.18440967500000 7.43170085937500 
 S -5.80602125625000 0.381699675000001 5.87561885937500 
 S -5.79069525625000 5.08074467500000 5.88915685937500 
 S -2.79154425625000 1.09152567500000 3.04822085937500 
 S -2.51553825625000 5.38124067500000 3.48296285937500 
 S -3.51695825625000 1.49520267500000 7.08354485937500 
 S -3.48882125625000 5.47867467500000 7.39433785937500 
