16

 C -3.00050075312500 1.24858465625000 5.50300907500000 
 C -2.96221575312500 5.14567465625000 5.66401207500000 
 C -4.22207575312500 0.915171656249999 4.83511507500000 
 C -4.21624475312500 4.80355065625000 4.99445607500000 
 N -1.89427875312500 1.31782165625000 4.74784007500000 
 N -1.98484175312500 5.25494065625000 4.80244007500000 
 N -4.06911775312500 0.741599656249999 3.49009007500000 
 N -4.09957075312500 4.57266865625000 3.69914007500000 
 N -4.82825475312500 1.30556165625000 7.29900707500000 
 N -4.86366275312500 5.13217965625000 7.41961407500000 
 S -5.61699175312500 1.03719665625000 5.84327507500000 
 S -5.60717875312500 4.80775965625000 5.96587607500000 
 S -2.38971575312500 0.859271656250000 3.21212207500000 
 S -2.49912375312500 4.93780765625000 3.26926907500000 
 S -3.19549675312500 1.64251365625000 7.20413507500000 
 S -3.19837275312500 5.45517465625000 7.42917507500000 
