16

 C -3.07294142812500 1.40790206562500 5.43062773437500 
 C -3.46867242812500 5.16811806562500 5.35748073437500 
 C -4.36141142812500 1.02969306562500 4.95679773437500 
 C -4.62648942812500 4.55597206562500 4.84308273437500 
 N -2.09572942812500 1.36268306562500 4.50102873437500 
 N -2.50208242812500 5.48607906562500 4.54456773437500 
 N -4.37522742812500 0.747591065625002 3.64258273437500 
 N -4.47133342812500 4.39381706562500 3.53647173437500 
 N -4.84614542812500 1.12877306562500 7.45016173437500 
 N -4.93838942812500 4.50268306562500 7.34724073437500 
 S -5.66892642812500 0.931044065625002 6.01005473437500 
 S -5.84955342812500 4.19581106562500 6.02721973437500 
 S -2.88583042812500 1.00918006562500 3.04598673437500 
 S -2.97309242812500 5.00236306562500 3.08788173437500 
 S -3.21528142812500 1.60348706562500 7.23602673437500 
 S -3.40188742812500 5.21234906562500 7.05446973437500 
