16

 C -3.17448258125000 1.66959601562500 5.67132403437500 
 C -2.94657758125000 5.13000801562500 5.44445003437500 
 C -4.39660858125000 1.24469101562500 5.05718703437500 
 C -4.23359158125000 4.79382401562500 4.78447903437500 
 N -2.14270958125000 1.78594401562500 4.80245003437500 
 N -1.88542458125000 5.35276001562500 4.64348103437500 
 N -4.40778358125000 1.08388301562500 3.73773503437500 
 N -4.08955558125000 4.77501301562500 3.45925503437500 
 N -5.02166658125000 1.40620201562500 7.48537703437500 
 N -4.65082258125000 5.09834201562500 7.42855203437500 
 S -5.77529958125000 1.04726901562500 6.04847403437500 
 S -5.56966458125000 4.63233801562500 6.01823703437500 
 S -2.84753058125000 1.40382801562500 3.26247803437500 
 S -2.48079858125000 5.08034101562500 3.11253903437500 
 S -3.47140858125000 1.87396301562500 7.42352903437500 
 S -2.96662958125000 5.28334301562500 7.16084503437500 
