16

 C -3.30996619375000 1.51636135625000 5.34769564375000 
 C -3.34751919375000 5.37340835625000 5.44553364375000 
 C -4.44055119375000 0.774987356250001 4.86268264375000 
 C -4.52435219375000 4.80214035625000 4.80458664375000 
 N -2.30141319375000 1.68534735625000 4.49821864375000 
 N -2.32613419375000 5.59503235625000 4.59183564375000 
 N -4.35874219375000 0.511635356250001 3.55390464375000 
 N -4.45279019375000 4.72728335625000 3.47697764375000 
 N -4.82797119375000 1.15797935625000 7.45070864375000 
 N -5.05520019375000 4.69903035625000 7.29133064375000 
 S -5.63116419375000 0.486079356250001 6.14397864375000 
 S -5.70935619375000 4.16576335625000 5.82859364375000 
 S -2.92070519375000 1.08234435625000 3.01835564375000 
 S -2.96795519375000 5.25933435625000 3.08136764375000 
 S -3.39029819375000 1.94696135625000 7.09284564375000 
 S -3.56123219375000 5.50581735625000 7.20304464375000 
