16

 C -3.38745892812500 1.38208987187500 5.45858553750000 
 C -3.21998092812500 5.01300987187500 4.97924653750000 
 C -4.38108392812500 0.537679871875002 4.84850053750000 
 C -4.34630492812500 4.46984487187500 4.30278053750000 
 N -2.51442892812500 1.83670787187500 4.56737653750000 
 N -2.15190892812500 5.27181787187500 4.25835253750000 
 N -4.21176292812500 0.332139871875002 3.54533953750000 
 N -4.16917892812500 4.45298087187500 2.99097253750000 
 N -5.11101392812500 0.795212871875003 7.19997753750000 
 N -4.81669792812500 4.36225787187500 6.83715453750000 
 S -5.74998892812500 0.185503871875002 5.81740653750000 
 S -5.56073392812500 3.83221287187500 5.45240853750000 
 S -2.84985292812500 1.14951587187500 3.10473553750000 
 S -2.62015392812500 5.03864187187500 2.63812653750000 
 S -3.60072592812500 1.45637187187500 7.14097853750000 
 S -3.38278592812500 5.23008087187500 6.65353953750000 
