16

 C -2.90316083750000 1.72630735000000 5.39735287500000 
 C -3.47610683750000 5.17077935000000 5.54409487500000 
 C -3.93355083750000 1.00783535000000 4.76466287500000 
 C -4.52474783750000 4.37976035000000 4.93984487500000 
 N -1.94924083750000 2.12372035000000 4.56937587500000 
 N -2.49180283750000 5.57315435000000 4.72920187500000 
 N -3.73083983750000 0.831368350000001 3.46374987500000 
 N -4.43330883750000 4.38650335000000 3.60931687500000 
 N -4.49118983750000 1.14977035000000 7.28358887500000 
 N -5.28403883750000 4.68085635000000 7.37713687500000 
 S -5.08152783750000 0.441137350000000 5.92406387500000 
 S -5.86331183750000 3.94060535000000 6.02292187500000 
 S -2.27862683750000 1.60592835000000 3.02463487500000 
 S -2.97454583750000 5.06731035000000 3.21660887500000 
 S -3.03189583750000 1.94952635000000 7.12693687500000 
 S -3.74142883750000 5.27918035000000 7.27271187500000 
