16

 C -3.28720418437500 1.16741157812500 5.46115921562500 
 C -3.25064718437500 5.25321157812500 5.10302921562500 
 C -4.43413118437500 0.630987578125003 4.77245421562500 
 C -4.24304918437500 4.43628957812500 4.44246421562500 
 N -2.23809318437500 1.40855457812500 4.68237921562500 
 N -2.32038318437500 5.79673557812500 4.33539421562500 
 N -4.28975818437500 0.600780578125003 3.46980221562500 
 N -4.03974618437500 4.30324057812500 3.13963921562500 
 N -5.17045218437500 0.842226578125004 7.20647921562500 
 N -4.89822618437500 4.36518857812500 6.95312821562500 
 S -5.79652718437500 0.226830578125004 5.79031221562500 
 S -5.52058918437500 3.85652957812500 5.47322621562500 
 S -2.76730218437500 1.07633057812500 3.10255521562500 
 S -2.74973918437500 5.22907657812500 2.80073221562500 
 S -3.60392518437500 1.37480657812500 7.14155621562500 
 S -3.47149118437500 5.25105857812500 6.86156321562500 
