16

 C -3.19429443750000 1.36926232187500 5.52951649375000 
 C -3.12513643750000 5.34547432187500 5.69509949375000 
 C -4.41610743750000 0.972994321875000 4.76322449375000 
 C -4.33870043750000 5.05166632187500 5.01699949375000 
 N -2.14400243750000 1.75547832187500 4.80111449375000 
 N -2.01323843750000 5.40741332187500 4.94237649375000 
 N -4.19453343750000 1.02252432187500 3.45119749375000 
 N -4.15995643750000 4.87419632187500 3.71346249375000 
 N -5.06310043750000 0.843391321875000 7.21516349375000 
 N -4.88973043750000 5.11003032187500 7.53604049375000 
 S -5.78243643750000 0.500913321875000 5.76330149375000 
 S -5.68436043750000 5.05373532187500 6.10438449375000 
 S -2.63939443750000 1.52867532187500 3.21562449375000 
 S -2.57421343750000 5.17646232187500 3.39302149375000 
 S -3.51599943750000 1.49991432187500 7.20190249375000 
 S -3.32640743750000 5.57438232187500 7.35973049375000 
