16

 C -3.17259093125000 1.33983092812500 5.24777046250000 
 C -2.97406193125000 4.92993992812500 5.62700746250000 
 C -4.29821993125000 0.659026928124999 4.58525846250000 
 C -4.23493693125000 4.52849692812500 5.05796946250000 
 N -2.13277293125000 1.70632392812500 4.53665546250000 
 N -2.02692893125000 5.21668092812500 4.72480646250000 
 N -4.09017993125000 0.525413928124999 3.29221846250000 
 N -4.23748593125000 4.36434292812500 3.73527946250000 
 N -4.88503493125000 0.804860928124999 7.12837046250000 
 N -4.55294893125000 4.72921892812500 7.61021946250000 
 S -5.59230493125000 0.313244928124998 5.71844846250000 
 S -5.45379293125000 4.46495992812500 6.26859546250000 
 S -2.58229293125000 1.19945092812500 2.95780646250000 
 S -2.65790693125000 4.76784692812500 3.21869946250000 
 S -3.34221193125000 1.48494992812500 6.96788846250000 
 S -2.91131493125000 5.07402992812500 7.40435746250000 
