16

 C -3.07089846250000 1.59234629375000 5.38378249687500 
 C -3.25980446250000 5.14178729375000 5.56126149687500 
 C -4.32974246250000 1.04580529375000 4.86394049687500 
 C -4.45521646250000 4.66028629375000 4.90279149687500 
 N -2.01097846250000 1.63359929375000 4.57724049687500 
 N -2.21144246250000 5.34281629375000 4.76325749687500 
 N -4.23473946250000 0.713150293749999 3.60127649687500 
 N -4.33274946250000 4.67709529375000 3.58445449687500 
 N -4.64787646250000 1.14749629375000 7.38979849687500 
 N -4.99894846250000 4.85002729375000 7.45743549687500 
 S -5.60020246250000 1.02904029375000 6.04001149687500 
 S -5.79207746250000 4.33531329375000 6.02257949687500 
 S -2.69873046250000 1.13244129375000 3.14698049687500 
 S -2.71885046250000 5.07154929375000 3.26806649687500 
 S -3.12181946250000 1.73902029375000 7.09495549687500 
 S -3.31520346250000 5.05936229375000 7.29161149687500 
