16

 C -3.25266485000000 1.38406255625000 5.55941057187500 
 C -3.19872585000000 5.01575455625000 5.68234757187500 
 C -4.46065785000000 0.861733556250003 4.99282957187500 
 C -4.34441585000000 4.39316755625000 5.10372057187500 
 N -2.24288785000000 1.38628855625000 4.69081357187500 
 N -2.14328885000000 5.08671555625000 4.83468057187500 
 N -4.39329985000000 0.427677556250003 3.73792457187500 
 N -4.25601385000000 4.13570155625000 3.80306557187500 
 N -4.89418085000000 1.23920155625000 7.57252557187500 
 N -4.90647385000000 4.81983255625000 7.49980857187500 
 S -5.75011985000000 0.870406556250003 6.18505057187500 
 S -5.63018885000000 4.28536455625000 6.14586457187500 
 S -2.87567185000000 0.793806556250003 3.21818357187500 
 S -2.74947585000000 4.61134055625000 3.36583357187500 
 S -3.23149185000000 1.76311355625000 7.30352757187500 
 S -3.33946885000000 5.19830055625000 7.38084857187500 
