16

 C -3.05468602812501 1.05866500000000 5.44059438750000 
 C -3.13071802812501 4.88038800000000 5.48192738750000 
 C -4.30020402812501 0.687642000000002 4.73123738750000 
 C -4.40614302812501 4.63209500000000 4.86961738750000 
 N -1.95935602812501 1.14723300000000 4.68839538750000 
 N -2.12497802812501 4.92276700000000 4.63725938750000 
 N -4.13658402812501 0.540207000000002 3.41026838750000 
 N -4.35017402812501 4.38247000000000 3.60125438750000 
 N -4.86835802812501 0.677105000000002 7.22488738750000 
 N -4.81854802812501 5.04478100000000 7.39099838750000 
 S -5.64950402812501 0.352997000000002 5.79896738750000 
 S -5.73871702812501 5.01582100000000 5.99218038750000 
 S -2.50805902812501 0.938041000000002 3.14589538750000 
 S -2.67926602812501 4.54928900000000 3.14677538750000 
 S -3.31394202812501 1.17898100000000 7.16217338750000 
 S -3.16607602812501 5.00910400000000 7.21382638750000 
