16

 C -3.15200733750000 1.20053112187500 5.53147379375000 
 C -3.34453433750000 5.00016812187500 5.48873579375000 
 C -4.41846933750000 0.927871121875000 4.90811379375000 
 C -4.51935333750000 4.48209012187500 4.83603279375000 
 N -2.11955733750000 1.37136912187500 4.70053079375000 
 N -2.36764033750000 5.30134712187500 4.66094079375000 
 N -4.30272033750000 0.848643121875000 3.60471479375000 
 N -4.42816433750000 4.43574212187500 3.49147079375000 
 N -4.91039033750000 1.21090112187500 7.40955879375000 
 N -5.15844633750000 4.65594412187500 7.33376979375000 
 S -5.74038733750000 0.896066121875000 6.01775879375000 
 S -5.82056933750000 4.14424612187500 5.90172179375000 
 S -2.78103633750000 1.14951512187500 3.19353479375000 
 S -2.95402833750000 4.98012612187500 3.10442079375000 
 S -3.29411733750000 1.62288712187500 7.24512379375000 
 S -3.56523833750000 5.15611512187500 7.29014779375000 
