16

 C -2.71244742812500 1.63388882812500 5.35771312187500 
 C -3.37578642812500 5.04719682812500 5.60634312187500 
 C -3.74984842812500 0.841917828125002 4.78755412187500 
 C -4.49931542812500 4.47839482812500 4.92844812187500 
 N -1.76544042812500 2.12721082812500 4.51144512187500 
 N -2.43152042812500 5.47408582812500 4.78134512187500 
 N -3.70572142812500 0.773273828125002 3.42969212187500 
 N -4.36860442812500 4.36011382812500 3.59571512187500 
 N -4.33896542812500 1.11286282812500 7.34099112187500 
 N -5.19197142812500 4.53703482812500 7.44295512187500 
 S -5.07418142812500 0.484304828125002 5.98075412187500 
 S -5.84588942812500 3.98510982812500 5.96605712187500 
 S -2.36888542812500 1.64952282812500 3.00576512187500 
 S -2.95211642812500 5.13265282812500 3.17993812187500 
 S -2.97704342812500 2.00230582812500 7.05209412187500 
 S -3.69258442812500 5.21642782812500 7.32346612187500 
