16

 C -3.20433803750000 1.47556810625000 5.38331865625000 
 C -3.34705503750000 5.26828810625000 5.34850665625000 
 C -4.42936003750000 0.724361106249997 4.91655665625000 
 C -4.49384503750000 4.65202410625000 4.71232365625000 
 N -2.24866203750000 1.73584110625000 4.47726465625000 
 N -2.34419103750000 5.62901510625000 4.54788965625000 
 N -4.38250603750000 0.420338106249997 3.63026465625000 
 N -4.37253903750000 4.56457410625000 3.39723965625000 
 N -4.70663003750000 1.17162010625000 7.41890665625000 
 N -5.09408203750000 4.74711210625000 7.23878065625000 
 S -5.58191603750000 0.522019106249997 6.18172465625000 
 S -5.73597003750000 4.09457410625000 5.82508265625000 
 S -2.90834603750000 0.987444106249997 3.13103865625000 
 S -2.83328803750000 5.16231310625000 3.00371865625000 
 S -3.32216203750000 1.95485410625000 7.03296765625000 
 S -3.65245103750000 5.54268710625000 7.05684865625000 
