16

 C -3.04739010312500 1.50727523750000 5.34313855000000 
 C -3.20955310312500 5.43429023750000 5.85276255000000 
 C -4.25212510312500 0.988679237500003 4.69643055000000 
 C -4.37078410312500 4.92492223750000 5.17187255000000 
 N -2.00211210312500 1.62434023750000 4.56082955000000 
 N -2.11691310312500 5.58476423750000 5.11848955000000 
 N -4.05211910312500 0.708764237500003 3.41738955000000 
 N -4.15798310312500 4.66113023750000 3.90626555000000 
 N -4.86081210312500 1.40177123750000 7.17691555000000 
 N -5.11357210312500 5.14057823750000 7.65907555000000 
 S -5.52592610312500 0.730530237500004 5.79891655000000 
 S -5.82765810312500 4.67004723750000 6.16727755000000 
 S -2.46451010312500 1.04825423750000 3.01533655000000 
 S -2.62310710312500 5.03584623750000 3.52882855000000 
 S -3.24123610312500 1.84305223750000 7.01324355000000 
 S -3.47021310312500 5.49252823750000 7.62062855000000 
