16

 C -2.83375361250000 1.29966987500000 5.65337026562500 
 C -2.96487461250000 4.83008387500000 5.37476426562500 
 C -4.22503061250000 1.13635087500000 5.23790926562500 
 C -4.21447761250000 4.51837587500000 4.70178726562500 
 N -1.95918961250000 0.922718875000002 4.74039126562500 
 N -1.84869461250000 4.91783387500000 4.66194826562500 
 N -4.32246561250000 0.665524875000002 4.00895126562500 
 N -3.99199361250000 4.27949687500000 3.36463826562500 
 N -4.56070761250000 1.71962087500000 7.72706326562500 
 N -4.63908061250000 4.89981287500000 7.22470226562500 
 S -5.48742461250000 1.41188887500000 6.31279026562500 
 S -5.53883661250000 4.55422987500000 5.89194326562500 
 S -2.89702561250000 0.577522875000002 3.40408726562500 
 S -2.37205961250000 4.53131887500000 3.14649026562500 
 S -2.88651361250000 1.53819187500000 7.43150726562500 
 S -3.03425961250000 4.81050887500000 7.10646126562500 
