16

 C -2.98720879687500 1.44082336250000 5.43408131562500 
 C -3.36388079687500 5.47750736250000 5.32691231562500 
 C -4.20339779687500 1.02997536250000 4.83332031562500 
 C -4.30147779687500 4.52127736250000 4.78495931562500 
 N -1.98695179687500 1.38400536250000 4.61814931562500 
 N -2.30511979687500 5.67862336250000 4.58328331562500 
 N -4.15922479687500 0.712029362500003 3.57456231562500 
 N -4.04178279687500 4.12592536250000 3.52140131562500 
 N -4.68821679687500 0.943390362500002 7.27888831562500 
 N -5.12502179687500 5.38626436250000 7.09246631562500 
 S -5.59432079687500 0.951115362500003 5.87950131562500 
 S -5.66545979687500 4.44520436250000 5.88229331562500 
 S -2.60871079687500 1.02611336250000 3.05828831562500 
 S -2.55767979687500 4.80511136250000 3.16701831562500 
 S -3.04211279687500 1.37588436250000 7.16374931562500 
 S -3.58954479687500 5.90433536250000 6.99751531562500 
