16

 C -3.03956688125000 1.38210453125000 5.43263898437500 
 C -2.93744888125000 5.19269053125001 5.69241598437500 
 C -4.27551688125000 1.01710353125001 4.72204698437500 
 C -4.15276088125000 4.77518453125001 5.04419398437500 
 N -1.94602688125000 1.35412653125001 4.67048298437500 
 N -1.90231288125000 5.32549153125001 4.79685498437500 
 N -4.03444888125000 0.608170531250006 3.47233198437500 
 N -4.13778188125000 4.54897453125001 3.74416998437500 
 N -4.82656488125000 1.32791253125001 7.34201598437500 
 N -4.83662788125000 4.96535853125001 7.43734998437500 
 S -5.71218288125000 1.09407853125001 5.92454598437500 
 S -5.62362588125000 4.80032853125001 5.99873898437500 
 S -2.41849188125000 0.824361531250006 3.22440398437500 
 S -2.62520488125000 4.93258753125000 3.30855498437500 
 S -3.10920188125000 1.63173853125001 7.10681798437500 
 S -3.26305488125000 5.42612853125001 7.49928698437500 
