16

 C -3.42257332812500 1.23176506562500 5.29901855625000 
 C -3.11022332812500 5.11844406562500 5.34037755625000 
 C -4.59802432812500 0.725331065624998 4.65444855625000 
 C -4.38073132812500 4.67998106562500 4.80048555625000 
 N -2.38265332812500 1.40666406562500 4.52979255625000 
 N -2.18080632812500 5.09211206562500 4.42322855625000 
 N -4.37739532812500 0.364943065624999 3.38697455625000 
 N -4.38030132812500 4.33322606562500 3.52960055625000 
 N -5.11480032812500 0.919548065624999 7.21938355625000 
 N -4.82662132812500 4.81578006562500 7.20915655625000 
 S -5.98657832812500 0.675025065624999 5.79716155625000 
 S -5.71564932812500 4.75044006562500 5.82169055625000 
 S -2.76150332812500 0.842303065624999 3.06449555625000 
 S -2.84863932812500 4.57783706562500 2.98831955625000 
 S -3.48122632812500 1.44939606562500 6.96369455625000 
 S -3.37380632812500 5.44737106562500 7.05430055625000 
