16

 C -3.14949143437500 1.18102629062500 5.71205577500000 
 C -3.13034843437500 5.04492229062500 5.55707877500000 
 C -4.42806943437500 0.834745290624999 5.18265277500000 
 C -4.36535143437500 4.62068229062500 4.99898977500000 
 N -2.08754743437500 1.18710229062500 4.90833377500000 
 N -2.13980143437500 5.27708929062500 4.71988477500000 
 N -4.37353343437500 0.588893290624999 3.86399477500000 
 N -4.30726243437500 4.47968029062500 3.68264577500000 
 N -4.87475543437500 1.52750029062500 7.70819777500000 
 N -4.91870743437500 5.03931729062500 7.46365177500000 
 S -5.80488743437500 1.17618329062500 6.28627977500000 
 S -5.68513743437500 4.55691629062500 6.12752477500000 
 S -2.80280743437500 0.861244290624999 3.37672277500000 
 S -2.82953943437500 5.06070729062500 3.19749677500000 
 S -3.21129943437500 1.62678829062500 7.43347977500000 
 S -3.34428443437500 5.45687229062500 7.23780377500000 
