16

 C -3.22158764375000 0.803688871874997 5.66288063125001 
 C -3.01058364375000 5.13715187187500 5.40013763125001 
 C -4.36746164375000 0.533830871874998 4.89129363125001 
 C -4.20979364375000 4.64587287187500 4.73676963125001 
 N -2.12716164375000 1.01522687187500 4.90960663125001 
 N -1.93992664375000 5.22234187187500 4.61987263125001 
 N -4.19308464375000 0.727157871874997 3.56919863125001 
 N -4.05936964375000 4.40820287187500 3.45407863125001 
 N -5.10256364375000 0.635778871874997 7.31334063125001 
 N -4.84572164375000 4.76639487187500 7.17955263125001 
 S -5.78281564375000 0.357205871874998 5.83618463125001 
 S -5.50073664375000 4.18998287187500 5.79303863125001 
 S -2.56705164375000 0.909643871874998 3.31075463125001 
 S -2.47716164375000 4.65891687187500 3.09715363125001 
 S -3.46336764375000 0.973909871874998 7.41359063125001 
 S -3.28582564375000 5.22873687187500 7.16487963125001 
