16

 C -3.24734899375000 1.23037085312500 5.50529345000000 
 C -3.18478199375000 5.46871385312500 5.54243145000000 
 C -4.43316699375000 0.802614853125001 4.85274645000000 
 C -4.24584099375000 4.83973985312500 4.78850345000000 
 N -2.20069399375000 1.36294385312500 4.71529145000000 
 N -2.14278999375000 5.74410485312500 4.76807545000000 
 N -4.32944699375000 0.782992853125001 3.52299545000000 
 N -4.16483599375000 4.97852085312500 3.47157345000000 
 N -4.88789099375000 1.03662185312500 7.34881345000000 
 N -4.88107499375000 4.82907985312500 7.38700245000000 
 S -5.66877499375000 0.529683853125000 5.96713845000000 
 S -5.50780399375000 4.36639685312500 5.93805945000000 
 S -2.69319999375000 1.01133785312500 3.21030345000000 
 S -2.65260099375000 5.51996985312500 3.17406745000000 
 S -3.27910599375000 1.29529385312500 7.23723645000000 
 S -3.33803699375000 5.55112085312500 7.29016645000000 
