16

 C -3.23408875000000 1.50990475312500 5.46193239062500 
 C -2.96890575000000 5.04035775312500 5.47678939062500 
 C -4.48816975000000 1.05621175312500 4.87961939062500 
 C -4.25563775000000 4.71262675312500 4.90537439062500 
 N -2.31674875000000 1.79019275312500 4.55528839062500 
 N -1.93804375000000 5.15059375312500 4.68459839062500 
 N -4.46894575000000 0.942013753125000 3.52362039062500 
 N -4.13319675000000 4.34345275312500 3.66166739062500 
 N -4.82512275000000 1.42311775312500 7.51919739062500 
 N -4.70517175000000 5.08174075312500 7.43196239062500 
 S -5.71156075000000 0.890970753125000 6.14264339062500 
 S -5.58649775000000 4.79552775312500 6.05261139062500 
 S -2.85841075000000 1.37122675312500 3.07626139062500 
 S -2.51561775000000 4.58030275312500 3.21899339062500 
 S -3.25750775000000 1.76864875312500 7.22184639062500 
 S -3.07116475000000 5.33160675312500 7.24461639062500 
