16

 C -3.23022775937500 1.28795605312500 5.29503667812500 
 C -2.91933475937500 5.24358605312500 5.33590867812500 
 C -4.48372675937500 0.930148053125001 4.74053767812500 
 C -4.14374075937500 4.88001105312500 4.64798167812500 
 N -2.18493975937500 1.20223605312500 4.48190667812500 
 N -1.83892975937500 5.42733505312500 4.57822467812500 
 N -4.40203375937500 0.564553053125001 3.45321267812500 
 N -3.92558975937500 4.59816505312500 3.34482567812500 
 N -4.88570175937500 1.30099405312500 7.28835267812500 
 N -4.67021375937500 4.85325105312500 7.24031367812500 
 S -5.77504075937500 0.906632053125001 5.93752367812500 
 S -5.42083475937500 4.46643105312500 5.79405067812500 
 S -2.77708075937500 0.637149053125001 3.03466267812500 
 S -2.28666875937500 4.92990505312500 3.06137067812500 
 S -3.27189375937500 1.57276105312500 6.99306067812500 
 S -3.11584675937500 5.48274405312500 7.13415867812500 
