16

 C -3.15367268437500 1.20907204062500 5.43018661562500 
 C -3.05390768437500 4.69551404062500 5.55459061562500 
 C -4.27816368437500 0.624712040625001 4.73058861562500 
 C -4.31548068437500 4.37976604062500 4.87928461562500 
 N -2.07808368437500 1.48090304062500 4.68286761562500 
 N -2.01341368437500 4.80578804062500 4.73594061562500 
 N -4.04508068437500 0.374995040625001 3.42839661562500 
 N -4.14370968437500 4.08855204062500 3.58895761562500 
 N -5.01857568437500 1.06199404062500 7.21131361562500 
 N -4.91847268437500 5.09632204062500 7.25992961562500 
 S -5.69696368437500 0.357476040625002 5.83301961562500 
 S -5.68757468437500 4.44277404062500 5.90795261562500 
 S -2.55317868437500 1.04719704062500 3.14828561562500 
 S -2.55813868437500 4.43804204062500 3.19816261562500 
 S -3.48604568437500 1.68810704062500 7.10014061562500 
 S -3.29694068437500 5.44357104062500 7.16113461562500 
