16

 C -3.36395275937500 1.23470849062500 5.45567070000000 
 C -3.19640675937500 5.00579949062500 5.31445170000000 
 C -4.47506975937500 0.674240490625000 4.75173970000000 
 C -4.44552875937500 4.61683949062500 4.63254070000000 
 N -2.30840175937500 1.34987149062500 4.65316870000000 
 N -2.11334175937500 5.01784549062500 4.59441170000000 
 N -4.35799675937500 0.422596490625000 3.45946170000000 
 N -4.20834075937500 4.30536449062500 3.38339670000000 
 N -5.32321575937500 1.11176649062500 7.13685470000000 
 N -4.99591075937500 5.02165549062500 7.18483970000000 
 S -5.88966675937500 0.434894490625000 5.73886670000000 
 S -5.81815375937500 4.81004049062500 5.77439070000000 
 S -2.82416075937500 0.907543490625000 3.07128270000000 
 S -2.59535475937500 4.56682849062500 3.03645970000000 
 S -3.71679675937500 1.48822449062500 7.13574870000000 
 S -3.29891675937500 5.54994049062500 6.91943070000000 
