16

 C -3.23633627500000 1.40599687187500 5.78443158125000 
 C -3.30465427500000 5.13041487187500 5.42297458125000 
 C -4.41972727500000 0.939402871875002 5.02703658125000 
 C -4.54367127500000 4.78244487187500 4.75645058125000 
 N -2.18245427500000 1.64973987187500 4.99083758125000 
 N -2.29757227500000 5.32428987187500 4.58558258125000 
 N -4.20803027500000 0.693653871875002 3.74748758125000 
 N -4.49069627500000 4.64414887187500 3.44877658125000 
 N -5.23608227500000 1.10197487187500 7.34998458125000 
 N -5.08212727500000 4.91323387187500 7.25602958125000 
 S -5.81165127500000 0.568428871875002 5.86624158125000 
 S -5.84521127500000 4.39312587187500 5.87605758125000 
 S -2.64980827500000 1.16320687187500 3.45774558125000 
 S -2.94061827500000 5.12711587187500 3.04246858125000 
 S -3.61484727500000 1.59066187187500 7.39951758125000 
 S -3.44842527500000 5.29599087187500 7.16672158125000 
