16

 C -3.18454776875000 1.49349479375000 5.45687435000000 
 C -2.99010876875000 5.11052479375000 5.50118835000000 
 C -4.46340076875000 1.41465179375000 4.84327735000000 
 C -4.28497376875000 4.86063379375000 4.89091535000000 
 N -2.16330476875000 1.55437779375000 4.63854935000000 
 N -1.96609676875000 5.32675879375000 4.66921835000000 
 N -4.40705776875000 1.47533379375000 3.52314235000000 
 N -4.26538376875000 5.02994479375000 3.59010335000000 
 N -4.87327676875000 1.47482679375000 7.33551235000000 
 N -4.75576376875000 4.71959179375000 7.45847535000000 
 S -5.77149776875000 1.35921679375000 5.96421335000000 
 S -5.56571976875000 4.44358279375000 5.99215735000000 
 S -2.74761776875000 1.68696979375000 3.09536835000000 
 S -2.66602976875000 5.29305679375000 3.12067235000000 
 S -3.21255276875000 1.64887479375000 7.12174935000000 
 S -3.10159276875000 5.03452779375000 7.24779535000000 
