16

 C -3.31863944062500 1.47425807812500 5.46930407500000 
 C -3.32693444062500 5.15902007812500 5.38174207500000 
 C -4.56880844062500 0.987313078124998 4.75803307500000 
 C -4.50622144062500 4.49387407812500 4.82812207500000 
 N -2.28006444062500 1.64747207812500 4.66259307500000 
 N -2.33430444062500 5.39921507812500 4.51798407500000 
 N -4.39897944062500 0.847488078124998 3.43525207500000 
 N -4.45716944062500 4.46400907812500 3.51631407500000 
 N -5.01384444062500 1.25938307812500 7.31642307500000 
 N -5.01427544062500 4.64554307812500 7.26444807500000 
 S -5.81929644062500 0.723955078124999 5.93765407500000 
 S -5.77506644062500 4.08049407812500 5.88905607500000 
 S -2.79845144062500 1.21231807812500 3.17034807500000 
 S -2.91464444062500 4.87103907812500 3.05375507500000 
 S -3.33958044062500 1.50628907812500 7.20045607500000 
 S -3.40619044062500 5.12337807812500 7.13561307500000 
