16

 C -2.84593675625000 1.29623115000000 5.73388845937500 
 C -2.93596575625000 4.89599915000000 5.40476545937500 
 C -4.17135175625000 1.21833015000000 5.20844045937500 
 C -4.14642875625000 4.56617215000000 4.69507245937500 
 N -1.91135775625000 1.00917815000000 4.76375745937500 
 N -1.84418475625000 4.87856515000000 4.63237545937500 
 N -4.37317275625000 0.750760150000002 3.97864745937500 
 N -4.01613775625000 4.31774115000000 3.40411645937500 
 N -4.55984275625000 1.60680815000000 7.64671145937500 
 N -4.78560675625000 4.87826715000000 7.26137045937500 
 S -5.49053375625000 1.43243215000000 6.29281345937500 
 S -5.58004475625000 4.50703815000000 5.87744245937500 
 S -2.78296275625000 0.582238150000001 3.37548545937500 
 S -2.32433775625000 4.45411415000000 3.12474745937500 
 S -2.88356175625000 1.53607415000000 7.42885445937500 
 S -3.04252075625000 4.87051815000000 7.10303745937500 
