16

 C -3.09847325312500 1.24734535937500 5.67073330937500 
 C -3.04658625312500 4.82486735937500 5.55665430937500 
 C -4.36228225312500 0.855792359375002 5.11910330937500 
 C -4.27206925312500 4.46783835937500 4.95167730937500 
 N -2.10241425312500 1.19531835937500 4.76620530937500 
 N -1.99070825312500 4.83758735937500 4.72213930937500 
 N -4.35815525312500 0.537798359375001 3.84989230937500 
 N -4.21412325312500 4.06996435937500 3.66819830937500 
 N -4.78031625312500 1.26846135937500 7.58830930937500 
 N -4.80816625312500 4.82770935937500 7.46014030937500 
 S -5.67538825312500 0.836851359375002 6.24755730937500 
 S -5.54427025312500 4.37742135937500 6.00574930937500 
 S -2.78941725312500 0.853157359375001 3.28977830937500 
 S -2.63227525312500 4.35060535937500 3.24739530937500 
 S -3.18137725312500 1.65173835937500 7.42013030937500 
 S -3.17773025312500 5.24496035937500 7.24741530937500 
