16

 C -2.89600178125000 1.72143350625000 5.73786185937500 
 C -3.33047078125000 5.38010250625000 5.37483085937500 
 C -4.14334878125000 1.47879050625000 5.15282185937500 
 C -4.56550378125000 4.91728950625000 4.77595285937500 
 N -1.88763778125000 1.85707450625000 4.90235685937500 
 N -2.30770578125000 5.58435150625000 4.56361485937500 
 N -4.09950678125000 1.52627450625000 3.83674285937500 
 N -4.49701578125000 4.86463950625000 3.44870885937500 
 N -4.69248878125000 1.65938450625000 7.63923485937500 
 N -4.98147278125000 5.09077950625000 7.33881785937500 
 S -5.46696378125000 1.42948050625000 6.19800585937500 
 S -5.73030178125000 4.47540350625000 6.02579685937500 
 S -2.53589878125000 1.71059850625000 3.32331285937500 
 S -2.98502878125000 5.34534750625000 3.00678285937500 
 S -3.01271478125000 1.72611250625000 7.46978085937500 
 S -3.44269678125000 5.73027050625000 7.05608185937500 
