16

 C -2.97560650625000 1.03730905625000 5.82120273750000 
 C -3.22725650625000 4.94686105625000 5.55874573750000 
 C -4.20305350625000 0.674962056250004 5.17834773750000 
 C -4.37820350625000 4.42477605625000 4.89842273750000 
 N -1.94688550625000 1.17497905625000 4.97816473750000 
 N -2.28147550625000 5.37299905625000 4.72589173750000 
 N -4.09146250625000 0.426148056250003 3.88637273750000 
 N -4.23658550625000 4.34881005625000 3.56826873750000 
 N -4.90699950625000 0.979061056250004 7.62986873750000 
 N -4.94920350625000 4.59754605625000 7.40417873750000 
 S -5.59777150625000 0.505268056250003 6.20444373750000 
 S -5.63377950625000 4.03202105625000 6.00687373750000 
 S -2.56322350625000 0.892553056250003 3.44719773750000 
 S -2.76871650625000 5.01807405625000 3.17007373750000 
 S -3.23528650625000 1.30543605625000 7.56846173750000 
 S -3.45440850625000 5.33107605625000 7.28142573750000 
