16

 C -3.12959320312500 1.43760896250000 5.91051780937500 
 C -3.11394520312500 4.98923896250000 5.72552880937500 
 C -4.33693320312500 0.967493962500001 5.35980480937500 
 C -4.25374820312500 4.49005996250000 5.04211980937500 
 N -2.20307720312500 1.58008396250000 4.95661680937500 
 N -2.07548220312500 5.26700396250000 4.98029780937500 
 N -4.41560620312500 0.730997962500002 4.02690480937500 
 N -4.05499520312500 4.41371296250000 3.71797980937500 
 N -4.95881620312500 1.31958196250000 7.77883080937500 
 N -4.89347420312500 4.90995996250000 7.54619280937500 
 S -5.73333620312500 1.02842596250000 6.33581780937500 
 S -5.60216120312500 4.40258996250000 6.16410580937500 
 S -2.92828620312500 1.13059796250000 3.45389180937500 
 S -2.52810820312500 5.03379496250000 3.44084480937500 
 S -3.37184120312500 1.78342896250000 7.66416580937500 
 S -3.20508820312500 5.24037796250000 7.36336780937500 
