16

 C -3.25044796875000 1.38215320312500 5.69902882812500 
 C -3.19987296875000 5.44957720312500 5.47401682812500 
 C -4.54540296875000 1.32412620312500 4.98175782812500 
 C -4.38415996875000 4.95537320312500 4.83581082812500 
 N -2.19233396875000 1.31619220312500 4.90923582812500 
 N -2.11926396875000 5.63128620312500 4.72440682812500 
 N -4.40546096875000 1.15064520312500 3.65936882812500 
 N -4.15973196875000 4.67577120312500 3.57918782812500 
 N -4.95867096875000 1.06302420312500 7.56894282812500 
 N -4.94665496875000 4.90108020312501 7.41317482812500 
 S -5.87038896875000 1.02268520312500 6.17225182812500 
 S -5.69055596875000 4.56222020312500 5.95778382812500 
 S -2.76373296875000 1.19408720312500 3.30413982812500 
 S -2.56459996875000 5.10195720312501 3.23871382812500 
 S -3.36345296875000 1.38880120312500 7.41936682812500 
 S -3.37557896875000 5.45611420312500 7.15580682812500 
