16

 C -3.09046265312500 1.52005520000000 5.57142210000000 
 C -2.96900565312500 5.34312320000000 5.45059810000000 
 C -4.33365465312500 1.00708120000000 5.09853510000000 
 C -4.20073465312500 4.89384420000000 4.80536210000000 
 N -2.16684465312500 1.63570820000000 4.65398010000000 
 N -2.01366665312500 5.55858320000000 4.56236010000000 
 N -4.29814265312500 0.661944200000001 3.82457910000000 
 N -4.11871965312500 4.73480020000000 3.49520210000000 
 N -4.59764665312500 1.17356220000000 7.61956310000000 
 N -4.54388265312500 4.87197720000000 7.31189910000000 
 S -5.55917165312500 0.821772200000000 6.28258210000000 
 S -5.45079765312500 4.64829620000000 5.98562810000000 
 S -2.82771165312500 1.14196320000000 3.21409510000000 
 S -2.59425665312500 5.23662720000000 3.01194910000000 
 S -3.03729665312500 1.60285220000000 7.37713510000000 
 S -2.98306965312500 5.41810220000000 7.16419310000000 
