16

 C -3.19859644375000 1.17580257812500 5.51100177812500 
 C -2.91696244375000 5.18578957812500 5.47748677812500 
 C -4.48519844375000 0.726611578125002 5.04478277812500 
 C -4.11185944375000 4.89516957812500 4.71592077812500 
 N -2.27143544375000 1.34295957812500 4.53449477812500 
 N -1.82914144375000 5.21557657812500 4.70736177812500 
 N -4.58992744375000 0.584024578125002 3.71101077812500 
 N -3.97984544375000 4.86779257812500 3.40193077812500 
 N -4.83701444375000 1.08870157812500 7.60760077812500 
 N -4.80636644375000 4.86740857812500 7.22497077812500 
 S -5.73944444375000 0.739385578125002 6.23643477812500 
 S -5.52179644375000 4.62582057812500 5.68797077812500 
 S -3.08840144375000 0.928075578125002 3.10784477812500 
 S -2.34486144375000 5.08311657812500 3.11503577812500 
 S -3.24754544375000 1.31366057812500 7.25209977812500 
 S -3.13808744375000 5.09316257812500 7.23552477812500 
