16

 C -3.43306359062500 1.23747616875000 5.30546071250000 
 C -3.13458059062500 5.07612816875000 5.31622971250000 
 C -4.60967259062500 0.713169168750001 4.67116871250000 
 C -4.38318559062500 4.65052716875000 4.74258771250000 
 N -2.29870459062500 1.36750816875000 4.55850271250000 
 N -2.09891859062500 5.05696516875000 4.44152471250000 
 N -4.33326959062500 0.350444168750002 3.40878071250000 
 N -4.34446259062500 4.30293016875000 3.47240571250000 
 N -5.15353859062500 0.991283168750002 7.18022071250000 
 N -4.86842059062500 4.86315316875000 7.22075771250000 
 S -5.95733359062500 0.600382168750001 5.79280671250000 
 S -5.74731859062500 4.78468516875000 5.79352771250000 
 S -2.79249859062500 0.883062168750001 3.09104671250000 
 S -2.77393359062500 4.58267316875000 3.04246371250000 
 S -3.58632959062500 1.45070216875000 7.03152471250000 
 S -3.36872459062500 5.48360816875000 6.98104871250000 
