16

 C -3.07606341562500 1.29769640000000 5.63566753125000 
 C -3.31069441562500 5.35452240000000 5.31648753125000 
 C -4.18616141562500 0.642474400000001 4.97244653125000 
 C -4.32357041562500 4.44795940000000 4.85219753125000 
 N -2.01805341562500 1.51183340000000 4.87469053125000 
 N -2.31553341562500 5.56305240000000 4.46146153125000 
 N -3.98516941562500 0.404181400000001 3.69764953125000 
 N -3.99278241562500 3.87229040000000 3.69955653125000 
 N -4.88873241562500 1.07409540000000 7.44819353125000 
 N -5.08749341562500 5.08725840000000 7.28780453125000 
 S -5.49409041562500 0.290712400000001 6.07141253125000 
 S -5.55568341562500 4.14199740000000 5.99077253125000 
 S -2.49111141562500 0.967221400000001 3.32948653125000 
 S -2.62154341562500 4.63062340000000 3.14109353125000 
 S -3.33666041562500 1.62186740000000 7.43117653125000 
 S -3.63288741562500 5.88359940000000 7.01793353125000 
