16

 C -3.20729329062500 1.05908343125000 5.53338009687500 
 C -3.25433829062500 4.68748843125000 5.56460909687500 
 C -4.34057629062500 0.678704431250004 4.70527109687500 
 C -4.56462529062500 4.45793843125000 5.00066009687500 
 N -2.16704729062500 1.50592443125000 4.83843609687500 
 N -2.21104329062500 4.73874343125000 4.69909109687500 
 N -4.09397329062500 0.822303431250003 3.41688909687500 
 N -4.54411129062500 4.48440643125000 3.67299009687500 
 N -5.01929529062500 0.186380431250004 7.19343809687500 
 N -4.96018829062500 4.61922743125000 7.56271909687500 
 S -5.67927229062500 5.475443125000412E-002 5.66925709687500 
 S -5.90273829062500 4.60252243125000 6.14847709687500 
 S -2.47521429062500 1.34134543125000 3.18202509687500 
 S -2.96004029062500 4.65755443125000 3.19856209687500 
 S -3.51142829062500 0.899156431250004 7.24229509687500 
 S -3.31346629062500 4.92450443125000 7.28399909687500 
