16

 C -2.89036471875000 1.65892115312500 5.41979994375000 
 C -3.13606171875000 5.17967615312500 5.51356794375000 
 C -4.16589771875000 1.51123715312500 4.77906294375000 
 C -4.33540771875000 4.71134815312500 4.85567194375000 
 N -1.87764471875000 1.60535415312500 4.57440894375000 
 N -2.09993771875000 5.34275415312500 4.74100294375000 
 N -4.08865671875000 1.33823115312500 3.45690994375000 
 N -4.11314871875000 4.36936315312500 3.58422994375000 
 N -4.66518371875000 1.68544615312500 7.33623894375000 
 N -4.97379271875000 5.01197515312500 7.33344094375000 
 S -5.49830971875000 1.38820015312500 5.92603394375000 
 S -5.70952571875000 4.67731715312500 5.89562694375000 
 S -2.42518371875000 1.27869115312500 3.06339594375000 
 S -2.55614171875000 4.79469915312500 3.21175794375000 
 S -3.02831171875000 1.97204915312500 7.13403894375000 
 S -3.36157671875000 5.26635915312500 7.20383194375000 
