16

 C -3.58885300937500 1.93068571562500 5.31898653437500 
 C -3.22353800937500 5.03042771562500 5.66570553437500 
 C -4.63066400937500 1.25129171562500 4.60948653437500 
 C -4.49456000937500 4.69250471562500 5.07994153437500 
 N -2.47792800937500 2.08228571562500 4.58538753437500 
 N -2.18258000937500 5.09307071562500 4.87199553437500 
 N -4.34009200937500 0.879815715625002 3.33667153437500 
 N -4.41023200937500 4.58556171562500 3.76522253437500 
 N -5.36627200937500 1.28084871562500 7.09554153437500 
 N -4.99128100937500 5.00427271562500 7.61491953437500 
 S -5.93442500937500 0.771791715625002 5.62328853437500 
 S -5.84821700937500 4.76062971562500 6.17361953437500 
 S -2.81863000937500 1.57524071562500 3.06406053437500 
 S -2.77575200937500 4.83401471562500 3.33950253437500 
 S -3.84859300937500 1.82946671562500 7.09274853437500 
 S -3.34887900937500 5.20546371562500 7.41813653437500 
