16

 C -2.97896727187500 1.37344775000001 5.38515361250000 
 C -3.18178327187500 5.24546275000001 5.99610561250000 
 C -4.20158427187500 0.899490750000007 4.69482461250000 
 C -4.38897527187500 4.89127375000001 5.26661361250000 
 N -1.99920327187500 1.72402375000001 4.57503261250000 
 N -2.06592027187500 5.37771375000001 5.24529761250000 
 N -4.11421827187500 0.866054750000007 3.38321261250000 
 N -4.23198727187500 4.80565475000001 3.96517961250000 
 N -4.84689927187500 1.16271675000001 7.20730561250000 
 N -5.05891327187500 5.04179975000001 7.79554061250000 
 S -5.55080227187500 0.673301750000006 5.79122661250000 
 S -5.84680327187500 4.84097775000001 6.29842961250000 
 S -2.49745327187500 1.31685575000001 2.98190161250000 
 S -2.63944427187500 5.13672175000001 3.67355461250000 
 S -3.23788627187500 1.67529975000001 7.06798561250000 
 S -3.43037227187500 5.54083675000001 7.69893461250000 
