16

 C -2.82736586250000 1.27552099062500 5.32036814375000 
 C -3.18594286250000 4.95609299062500 5.43380014375000 
 C -4.07157186250000 0.781091990625004 4.85293414375000 
 C -4.41191886250000 4.38964099062500 4.81644714375000 
 N -1.89819286250000 1.52071199062500 4.36605814375000 
 N -2.18528386250000 5.20904199062500 4.56295914375000 
 N -4.14327886250000 0.686768990625003 3.51031314375000 
 N -4.30801486250000 4.32617199062500 3.49245214375000 
 N -4.48164286250000 1.19907299062500 7.33192914375000 
 N -4.80070986250000 5.04569999062500 7.39302414375000 
 S -5.36175086250000 0.814103990625004 5.92011414375000 
 S -5.60634286250000 4.24284899062500 6.11766514375000 
 S -2.67139086250000 1.10721299062500 2.93441314375000 
 S -2.81665086250000 4.89007199062500 3.03601714375000 
 S -2.91741686250000 1.78065899062500 7.04550814375000 
 S -3.25370686250000 5.46710299062500 7.09245714375000 
