16

 C -2.88791626562500 1.36877300625000 5.74034263125000 
 C -3.10734926562500 5.19611300625000 5.47261563125000 
 C -4.18899926562500 1.00627400625000 5.18112363125000 
 C -4.39963726562500 4.81571100625000 4.91624663125000 
 N -1.88126426562500 1.19802700625000 4.87287863125000 
 N -2.11417126562500 5.08382800625000 4.60403063125000 
 N -4.06775626562500 0.512641006250000 3.93563163125000 
 N -4.37556226562500 4.39922400625000 3.66178763125000 
 N -4.68019426562500 1.51355000625000 7.64686363125000 
 N -4.84466126562500 4.97956800625000 7.52108463125000 
 S -5.48222826562500 0.903777006249999 6.35613763125000 
 S -5.65701326562500 4.53512700625000 6.08617563125000 
 S -2.47481326562500 0.579358006250000 3.47891563125000 
 S -2.81305226562500 4.51028500625000 3.16961263125000 
 S -3.10356326562500 1.88438400625000 7.42965763125000 
 S -3.21714826562500 5.24356300625000 7.24468363125000 
