16

 C -2.96042605312500 1.19725537812500 5.54583925937500 
 C -2.93059805312500 5.08712837812500 5.67017825937500 
 C -4.15465505312500 0.673059378125000 4.84007725937500 
 C -4.13852105312500 4.47847537812500 5.09807525937500 
 N -1.85395105312500 1.38996537812500 4.80390325937500 
 N -1.95254905312500 5.33290837812500 4.80047125937500 
 N -3.89591305312500 0.345719378125001 3.55283025937500 
 N -4.04662205312500 4.13928237812500 3.82742325937500 
 N -4.87265905312500 1.33828637812500 7.23995525937500 
 N -4.72002705312500 4.82786937812500 7.56724525937500 
 S -5.54827105312500 0.620332378125000 5.90696125937500 
 S -5.45580805312500 4.35806737812500 6.15035525937500 
 S -2.31965805312500 0.805278378125000 3.31118325937500 
 S -2.57364605312500 4.78085837812500 3.34701125937500 
 S -3.24193105312500 1.62868537812500 7.21940425937500 
 S -3.14473305312500 5.36800737812500 7.36742825937500 
