16

 C -3.23834493750000 1.26884790625000 5.32107715000000 
 C -2.91421793750000 5.23846990625000 5.33479415000000 
 C -4.48688293750000 0.936553906249999 4.76063715000000 
 C -4.14799793750000 4.87472790625000 4.64439115000000 
 N -2.20965693750000 1.18963490625000 4.48360615000000 
 N -1.82918693750000 5.43119190625000 4.57705515000000 
 N -4.40618293750000 0.552516906250000 3.47638615000000 
 N -3.91661293750000 4.62078290625000 3.34680515000000 
 N -4.85809293750000 1.25816590625000 7.29976515000000 
 N -4.65615293750000 4.84107390625000 7.23269715000000 
 S -5.76235493750000 0.901881906249999 5.93218615000000 
 S -5.41163893750000 4.48707690625000 5.78532915000000 
 S -2.78320693750000 0.638666906250000 3.03667715000000 
 S -2.28428393750000 4.93707690625000 3.06505215000000 
 S -3.26212393750000 1.58225890625000 6.99859415000000 
 S -3.12185193750000 5.47226590625000 7.13732915000000 
