16

 C -3.17165533750000 1.12897235625000 5.42517239062500 
 C -3.10310533750000 5.22865835625000 5.57050239062500 
 C -4.27376333750000 0.526904356250004 4.78579639062500 
 C -4.33888333750000 4.82403235625000 4.89506439062500 
 N -2.08858133750000 1.27136735625000 4.66155739062500 
 N -2.04008333750000 5.19986635625000 4.79861039062500 
 N -3.98438333750000 0.130715356250004 3.54531739062500 
 N -4.16901933750000 4.60679435625000 3.63690539062500 
 N -5.04505933750000 1.23548035625000 7.12377339062500 
 N -4.90071133750000 5.25580935625000 7.40981439062500 
 S -5.71526733750000 0.596860356250004 5.78184939062500 
 S -5.62089733750000 4.71982235625000 6.03663139062500 
 S -2.43355033750000 0.507254356250004 3.25095639062500 
 S -2.56881033750000 4.85989435625000 3.25070739062500 
 S -3.41114433750000 1.53982835625000 7.10495839062500 
 S -3.31279733750000 5.58458135625000 7.23905039062500 
