16

 C -3.34243291562500 1.27315706875000 5.95987915625001 
 C -3.03939691562500 4.85328606875000 5.24360615625001 
 C -4.45763691562500 0.782550068750002 5.26408715625001 
 C -4.29724591562500 4.69118306875000 4.55278615625001 
 N -2.26643991562500 1.48618306875000 5.26118615625001 
 N -1.98853191562500 4.97834806875000 4.46224015625001 
 N -4.32284791562500 0.764921068750002 3.97113015625001 
 N -4.16441591562500 4.48818406875000 3.25380915625001 
 N -5.26291191562500 0.802265068750002 7.69017515625001 
 N -4.83192791562500 4.76464906875000 7.08702815625001 
 S -5.85568191562500 0.395830068750002 6.20529515625001 
 S -5.59733991562500 4.54125606875000 5.65208915625001 
 S -2.73016991562500 1.20952706875000 3.68083815625001 
 S -2.56823291562500 4.74200606875000 2.91136815625001 
 S -3.65379391562500 1.22903406875000 7.67284715625001 
 S -3.17600391562500 5.00277106875000 6.96460015625001 
