16

 C -3.05163863125000 1.77440751875000 5.50836053125000 
 C -3.06118163125000 5.35709551875000 5.65330653125000 
 C -4.33496663125000 1.37439751875000 4.96549053125000 
 C -4.24377863125000 4.84396251875000 4.98767753125000 
 N -2.08344263125000 1.80627351875000 4.61731453125000 
 N -1.99805663125000 5.48971051875000 4.83576553125000 
 N -4.31695363125000 1.12520251875000 3.68601553125000 
 N -4.10321963125000 4.69445151875000 3.66834853125000 
 N -4.67095463125000 1.38395951875000 7.59824453125000 
 N -4.91268663125000 4.79815751875000 7.46815053125000 
 S -5.54136863125000 1.29068751875000 6.14394153125000 
 S -5.60583863125000 4.57486551875000 5.98757553125000 
 S -2.76166263125000 1.55814151875000 3.08890553125000 
 S -2.55378563125000 5.15448851875000 3.29523453125000 
 S -3.06015463125000 1.69800851875000 7.30879853125000 
 S -3.30559263125000 5.26697551875000 7.42072953125000 
