16

 C -3.23682573125000 1.56493328437500 5.34074692500000 
 C -3.03134073125000 5.08477228437500 5.43888192500000 
 C -4.38407173125000 1.07374528437500 4.65699392500000 
 C -4.28694073125000 4.92330928437500 4.75839092500000 
 N -2.24354573125000 1.73293928437500 4.50192692500000 
 N -1.99169873125000 5.11740628437500 4.58725192500000 
 N -4.28841773125000 0.904251284374999 3.33139192500000 
 N -4.25810373125000 5.04084728437500 3.39438192500000 
 N -5.03760173125000 1.19410428437500 7.15845292500000 
 N -4.83636973125000 4.93390128437500 7.24466392500000 
 S -5.73530273125000 0.817933284374998 5.68921292500000 
 S -5.66900573125000 4.78632728437500 5.80749192500000 
 S -2.76002873125000 1.49019128437500 3.00354892500000 
 S -2.64635173125000 5.11395428437500 3.04591492500000 
 S -3.35026373125000 1.59723428437500 7.11689092500000 
 S -3.19628673125000 4.82751828437500 7.18229792500000 
