16

 C -3.69706790937500 1.28597875000000 5.77080987500000 
 C -3.06384390937500 5.04685975000000 5.32852887500000 
 C -4.76378390937500 0.714904749999998 4.94074987500000 
 C -4.30751290937500 4.47254075000000 4.85687387500000 
 N -2.60205890937500 1.57219975000000 5.05104287500000 
 N -2.13420590937500 5.16040775000000 4.36384787500000 
 N -4.51269990937500 0.730338749999999 3.62947787500000 
 N -4.36756090937500 4.25458175000000 3.56033087500000 
 N -5.66900590937500 0.707107749999999 7.35768687500000 
 N -4.80685990937500 4.93552275000000 7.34863687500000 
 S -6.21184990937500 0.369793749999999 5.85223387500000 
 S -5.64648490937500 4.34719375000000 5.98907387500000 
 S -2.86853490937500 1.12431575000000 3.47564987500000 
 S -2.83768290937500 4.62783675000000 2.95535087500000 
 S -4.13372290937500 1.28257675000000 7.46010287500000 
 S -3.25930290937500 5.49201675000000 7.03068387500000 
