16

 C -3.22157814375000 1.50209142500000 5.39882375312500 
 C -3.39298814375000 5.29119742500000 5.30922875312500 
 C -4.33854214375000 0.730867425000000 4.96915875312500 
 C -4.46142214375000 4.58859942500000 4.65616375312500 
 N -2.28176114375000 1.69677242500000 4.48607175312500 
 N -2.35863014375000 5.61052942500000 4.52530175312500 
 N -4.31980014375000 0.423504424999999 3.66610875312500 
 N -4.24515714375000 4.45149942500000 3.34091175312500 
 N -4.73164514375000 1.19529042500000 7.41909975312500 
 N -5.14896814375000 4.78572642500000 7.21646175312500 
 S -5.55738414375000 0.532327424999999 6.15146675312500 
 S -5.78039714375000 4.06849042500000 5.85033075312500 
 S -2.91687414375000 0.964079425000000 3.10969575312500 
 S -2.80221314375000 5.13243842500000 2.99206575312500 
 S -3.26793014375000 1.93138142500000 7.06441975312500 
 S -3.63470414375000 5.55990842500000 7.01052375312500 
