16

 C -3.19090566562500 1.27832735937500 5.50549144687500 
 C -3.09438666562500 5.62567135937500 5.61250544687500 
 C -4.44786966562500 0.824859359375000 4.85814544687500 
 C -4.22164866562500 5.03145035937500 4.95970144687500 
 N -2.19824866562500 1.58061635937500 4.67733544687500 
 N -2.11748466562500 6.05954235937500 4.79759544687500 
 N -4.26591366562500 0.586018359375000 3.55575244687500 
 N -4.01614666562500 4.75423235937500 3.65123644687500 
 N -5.12579066562500 1.23791235937500 7.32614544687500 
 N -4.87393466562500 5.06633135937500 7.45466744687500 
 S -5.89341166562500 0.754174359375000 5.90500344687500 
 S -5.47926066562500 4.50552535937500 5.95433044687500 
 S -2.73960266562500 0.984716359375000 3.17924044687500 
 S -2.49831466562500 5.44366435937500 3.29676544687500 
 S -3.45176966562500 1.49377035937500 7.26885144687500 
 S -3.38656266562500 5.85741635937500 7.32724744687500 
