16

 C -2.88612268437500 1.57504650000000 5.82556173437500 
 C -3.32151368437500 5.35226650000000 5.53406973437500 
 C -4.17276568437500 1.41467850000000 5.16928273437500 
 C -4.54806568437500 4.90356850000000 4.89602173437500 
 N -1.87369268437500 1.68437450000000 4.99427273437500 
 N -2.36277868437500 5.64878850000000 4.64758473437500 
 N -4.05059668437500 1.34056550000000 3.85016973437500 
 N -4.56260368437500 4.81776750000000 3.58296873437500 
 N -4.60613168437500 1.45704950000000 7.70689573437500 
 N -5.07560168437500 5.05741850000000 7.41572273437500 
 S -5.45915468437500 1.42495950000000 6.27438973437500 
 S -5.82912968437500 4.66625850000000 6.00168373437500 
 S -2.48310968437500 1.56699650000000 3.41102173437500 
 S -3.06047968437500 5.23736850000000 3.12972673437500 
 S -2.89674868437500 1.56965950000000 7.52384673437500 
 S -3.46558568437500 5.53847050000000 7.24883573437500 
