16

 C -3.22822816250000 1.33640606250000 5.67949906562500 
 C -3.52267116250000 5.35085406250000 5.37452306562500 
 C -4.32809016250000 0.662515062500002 5.04107306562500 
 C -4.52536716250000 4.44902706250000 4.78843806562500 
 N -2.21651916250000 1.61481606250000 4.83373206562500 
 N -2.42127316250000 5.53833306250000 4.64252806562500 
 N -4.19216016250000 0.493438062500002 3.73759406562500 
 N -4.28341416250000 4.19610206250000 3.51311706562500 
 N -4.82825116250000 0.801709062500001 7.54247606562500 
 N -5.32462516250000 4.98231106250000 7.25622906562500 
 S -5.58609416250000 0.340414062500002 6.12690006562500 
 S -5.81486616250000 4.14140406250000 5.88826206562500 
 S -2.67004316250000 1.14615206250000 3.33358806562500 
 S -2.81947516250000 4.91215406250000 3.11042206562500 
 S -3.36344316250000 1.65331706250000 7.40477806562500 
 S -3.83348216250000 5.72529106250000 7.09050906562500 
