16

 C -3.03205448437500 1.67603776562499 5.61259073437500 
 C -3.06772548437500 5.37854876562499 5.59494573437500 
 C -4.11416148437500 0.982136765624994 5.00364573437500 
 C -4.28091948437500 4.88287176562499 4.96984073437500 
 N -1.99289648437500 1.79312376562499 4.81790373437500 
 N -2.04818248437500 5.39059876562499 4.74203473437500 
 N -3.96438948437500 0.732276765624994 3.71447973437500 
 N -4.19970648437500 4.55906276562499 3.67319073437500 
 N -4.70921548437500 1.48831076562499 7.47171173437500 
 N -4.85587448437500 5.35718776562499 7.41906773437500 
 S -5.43893348437500 0.775074765624994 6.12137773437500 
 S -5.65056048437500 4.90839476562499 6.02826173437500 
 S -2.36744848437500 1.27621776562499 3.32016273437500 
 S -2.61441948437500 5.01011876562499 3.22373473437500 
 S -3.21004648437500 2.11467676562499 7.24712173437500 
 S -3.23882648437500 5.74276576562499 7.28163673437500 
