16

 C -2.92984479687499 1.41352898750000 5.29734274375000 
 C -3.09279579687499 5.12770298750000 5.48640974375000 
 C -4.14988979687499 0.905296987500003 4.78149074375000 
 C -4.31919379687499 4.55879398750000 4.90872474375000 
 N -1.88648579687499 1.55602098750000 4.44437374375000 
 N -2.09698979687499 5.28017198750000 4.56993374375000 
 N -3.98291879687499 0.626800987500005 3.47356074375000 
 N -4.19394779687499 4.28383398750000 3.63920474375000 
 N -4.43638979687499 1.13645798750000 7.29943974375000 
 N -4.89303779687499 4.93860098750000 7.36585674375000 
 S -5.38166279687499 0.691587987500004 6.05894074375000 
 S -5.58921979687499 4.31843398750000 6.00742974375000 
 S -2.50582679687499 1.20864498750000 2.97112974375000 
 S -2.65961779687499 4.73039698750000 3.13411174375000 
 S -2.95802479687499 1.76266598750000 6.96328974375000 
 S -3.28630579687499 5.45731998750000 7.17569874375000 
