16

 C -3.36161524062500 1.29076916562500 5.41753444062500 
 C -3.27986824062500 5.14061716562500 5.78726344062500 
 C -4.59210024062500 0.834093165625000 4.71759144062500 
 C -4.54277824062500 4.72771016562500 5.17942544062500 
 N -2.33386524062500 1.63157116562500 4.65489844062500 
 N -2.26084424062500 5.22546416562500 4.98205244062500 
 N -4.48996624062500 0.988492165625000 3.39595944062500 
 N -4.49939124062500 4.72242916562500 3.86211544062500 
 N -5.25888624062500 0.936621165625001 7.14652544062500 
 N -5.06300024062500 4.86227916562500 7.74137544062500 
 S -5.96734024062500 0.429847165625000 5.71977844062500 
 S -5.77912124062500 4.38087316562500 6.30333044062500 
 S -2.93318324062500 1.35974416562500 3.08021944062500 
 S -2.84804124062500 5.06181516562500 3.46155444062500 
 S -3.65717124062500 1.41783616562500 7.13785044062500 
 S -3.42805224062500 5.21261616562500 7.56017544062500 
