16

 C -2.82086338437500 1.37951306562501 5.33127350312500 
 C -3.11077338437500 5.06880606562501 5.44944750312500 
 C -4.10560538437500 0.884127065625007 4.79569850312500 
 C -4.29653538437500 4.50510406562501 4.87749250312500 
 N -1.89757938437500 1.53563706562501 4.44821650312500 
 N -2.11833638437500 5.24781106562501 4.59444950312500 
 N -4.07553538437500 0.608320065625007 3.49451650312500 
 N -4.28370638437500 4.28379106562501 3.55867950312500 
 N -4.44923238437500 1.15117406562501 7.30589450312500 
 N -4.87616138437500 4.96435106562501 7.33988650312500 
 S -5.39257638437500 0.731670065625007 6.01708150312500 
 S -5.59918138437500 4.29676906562501 6.07143150312500 
 S -2.54923538437500 1.19109506562501 2.96118450312500 
 S -2.70090838437500 4.78726506562501 3.09536650312500 
 S -2.93822938437500 1.77068806562501 6.95107850312500 
 S -3.27561638437500 5.46759606562501 7.15324350312500 
