16

 C -3.17168428437500 1.25515410000000 5.41780693125000 
 C -3.14477228437500 5.32680210000000 5.63018193125000 
 C -4.32208128437500 0.589688100000004 4.82119193125000 
 C -4.27351928437500 4.71993810000000 5.06301393125000 
 N -2.10741728437500 1.19337610000000 4.63019393125000 
 N -2.14988728437500 5.54609810000000 4.74644193125000 
 N -4.06001528437500 7.152100000003436E-003 3.63873293125000 
 N -4.12947928437500 4.42319110000000 3.75750493125000 
 N -5.03183328437500 1.21091510000000 7.19087093125000 
 N -4.93042528437500 5.13702810000000 7.46132793125000 
 S -5.75375628437500 0.608667100000003 5.83919193125000 
 S -5.71530428437500 4.75382010000000 5.99671793125000 
 S -2.54803428437500 0.450587100000003 3.22327793125000 
 S -2.63365628437500 4.91771810000000 3.27208893125000 
 S -3.49196228437500 1.84439410000000 7.00061893125000 
 S -3.32765828437500 5.70130710000000 7.34596893125000 
