16

 C -2.89064355937500 1.80760321875000 5.63935789687500 
 C -3.21750455937500 5.29097521875000 5.68419489687500 
 C -4.15829255937500 1.59723221875000 5.04030989687500 
 C -4.44927855937500 4.85674321875000 5.08066089687500 
 N -1.84927955937500 1.82405221875000 4.79843689687500 
 N -2.17872755937500 5.31886121875000 4.86706189687500 
 N -4.10348055937500 1.66851721875000 3.68406989687500 
 N -4.38435655937500 4.77500621875000 3.75208989687500 
 N -4.55320755937500 1.51630121875000 7.65612489687500 
 N -4.85316655937500 5.22081421875000 7.65817689687500 
 S -5.43818555937500 1.45172121875000 6.26577789687500 
 S -5.68898055937500 4.72188421875000 6.29980589687500 
 S -2.51462655937500 1.63205321875000 3.27049489687500 
 S -2.77169955937500 4.94110821875000 3.32542589687500 
 S -2.96075755937500 1.90490621875000 7.37143689687500 
 S -3.18578255937500 5.58929621875000 7.39816989687500 
