16

 C -3.16009127500000 1.17618817187500 5.62984122812500 
 C -3.08042527500000 5.03458017187500 5.60170422812500 
 C -4.42916027500000 0.767990171875002 4.96678822812500 
 C -4.30781027500000 4.70579517187500 4.92051122812500 
 N -2.13118827500000 1.37981517187500 4.79336122812500 
 N -2.11213227500000 5.35795217187500 4.76615322812500 
 N -4.35473927500000 0.608630171875001 3.65141822812500 
 N -4.22249027500000 4.51476917187500 3.62352522812500 
 N -4.98768727500000 1.13171617187500 7.42085722812500 
 N -4.75126227500000 4.65002517187500 7.41430022812500 
 S -5.72373927500000 0.485909171875002 6.08791422812500 
 S -5.56592127500000 4.34437217187500 6.04667022812500 
 S -2.77065727500000 1.04233817187500 3.28913922812500 
 S -2.67875527500000 5.00320017187500 3.21125022812500 
 S -3.36878427500000 1.47698017187500 7.27901022812500 
 S -3.21588127500000 5.19685017187500 7.34366222812500 
