16

 C -3.43412070312500 1.38535796562500 5.51078309062500 
 C -2.88502470312500 5.24652996562500 5.44954509062500 
 C -4.49532470312500 0.569467965625002 4.93192409062500 
 C -4.12476470312500 4.90708996562500 4.81196309062500 
 N -2.43941170312500 1.75401896562500 4.69310609062500 
 N -1.89672670312500 5.29067896562500 4.56974409062500 
 N -4.21584070312500 0.349156965625001 3.62174609062500 
 N -4.12488070312500 4.70901396562500 3.53074209062500 
 N -5.14432670312500 1.17777396562500 7.43240709062500 
 N -4.81405970312500 5.02566896562500 7.30552509062500 
 S -5.79848170312500 0.267191965625002 6.10578809062500 
 S -5.50001870312500 4.78948196562500 5.82224809062500 
 S -2.72468270312500 1.01705996562500 3.29377509062500 
 S -2.52651370312500 4.93605496562500 3.10586609062500 
 S -3.64346270312500 1.85985496562500 7.18288609062500 
 S -3.14734970312500 5.42493396562500 7.26225309062500 
