16

 C -3.27400445312500 1.49752442500000 5.26143567500000 
 C -3.09128345312500 5.06850442500000 5.44408767500000 
 C -4.41620745312500 0.908799425000000 4.57974067500000 
 C -4.29162745312500 4.60203442500000 4.79841267500000 
 N -2.18243945312500 1.53462742500000 4.50066367500000 
 N -1.99112745312500 4.99752442500000 4.68646667500000 
 N -4.22000645312500 0.628867425000000 3.29518067500000 
 N -4.05117345312500 4.07647742500000 3.60057567500000 
 N -5.07723745312500 1.02737442500000 7.06231967500000 
 N -4.86644045312500 4.91451542500000 7.30689767500000 
 S -5.76070445312500 0.503991425000000 5.62996167500000 
 S -5.64023045312500 4.47320642500000 5.89138167500000 
 S -2.62418245312500 0.883039425000000 3.02496867500000 
 S -2.45672145312500 4.23316442500000 3.26553867500000 
 S -3.59420745312500 1.69514342500000 6.96898867500000 
 S -3.33133345312500 5.47321342500000 7.09239467500000 
