16

 C -3.25588469687500 0.990256315625002 5.62467130312500 
 C -2.92161469687500 5.09170131562500 5.57770430312500 
 C -4.41168769687500 0.483997315625002 4.90272730312500 
 C -4.12059869687500 4.59765831562500 4.95664530312500 
 N -2.17720769687500 1.13155431562500 4.85821030312500 
 N -1.85727669687500 5.25290631562500 4.76255130312500 
 N -4.25177269687500 0.481091315625002 3.59969130312500 
 N -3.98794769687500 4.50377331562500 3.64751130312500 
 N -5.21258269687500 1.01792931562500 7.33958330312500 
 N -4.72084169687500 4.78981531562500 7.42446030312500 
 S -5.81119769687500 0.335227315625001 5.94558230312500 
 S -5.45724569687500 4.26869331562500 6.00866130312500 
 S -2.64968769687500 0.854839315625002 3.30498530312500 
 S -2.47253969687500 4.79220331562500 3.25176530312500 
 S -3.53953669687500 1.26994431562500 7.31124630312500 
 S -3.15749169687500 5.35478831562500 7.28128930312500 
