16

 C -3.26246984375000 1.03010324687500 5.51603199375000 
 C -3.28541284375000 5.12909924687500 5.71502399375000 
 C -4.51710384375000 0.733769246874998 4.78781599375000 
 C -4.41747484375000 4.47888824687500 5.11087499375000 
 N -2.21914484375000 1.19129724687500 4.71936899375000 
 N -2.25926984375000 5.31604524687500 4.88838199375000 
 N -4.41090584375000 0.750091246874998 3.45057399375000 
 N -4.27884784375000 4.34616124687500 3.78416199375000 
 N -5.04975384375000 0.578577246874997 7.26423999375000 
 N -4.92067584375000 4.53071324687500 7.62978199375000 
 S -5.84185984375000 0.420744246874997 5.81150799375000 
 S -5.68449584375000 4.20453724687500 6.16127499375000 
 S -2.82693284375000 1.09471524687500 3.18596699375000 
 S -2.77489384375000 4.89406724687500 3.38339099375000 
 S -3.38478784375000 0.881264246874997 7.25464999375000 
 S -3.37104784375000 5.25267524687500 7.47397899375000 
