16

 C -3.26964656875000 1.09018098437500 5.46889689687500 
 C -3.32446256875000 5.23014698437500 5.20853389687500 
 C -4.49793356875000 0.730340984375004 4.73759289687500 
 C -4.30168156875000 4.45437098437500 4.50236389687500 
 N -2.20826956875000 1.30144598437500 4.66839089687500 
 N -2.39428556875000 5.73500998437500 4.43679689687500 
 N -4.37410756875000 0.691958984375003 3.41420689687500 
 N -4.06746256875000 4.34805498437500 3.21704889687500 
 N -5.18038456875000 0.831280984375004 7.19787389687500 
 N -4.98495056875000 4.55868998437500 7.01177689687500 
 S -5.79378856875000 0.304918984375004 5.72996889687500 
 S -5.58414156875000 3.81853098437500 5.59887589687500 
 S -2.75114756875000 0.977139984375004 3.15650689687500 
 S -2.70291756875000 5.32853498437500 2.86888589687500 
 S -3.57653656875000 1.25618998437500 7.19846489687500 
 S -3.48207456875000 5.30741998437500 6.91250889687500 
