16

 C -3.11204512187500 1.46570060937500 5.64426752812500 
 C -3.30730512187500 5.07174460937500 5.29674552812500 
 C -4.31940812187500 1.08855660937500 4.89220352812500 
 C -4.47271812187500 4.56161760937500 4.61254252812500 
 N -2.01341912187500 1.60581960937500 4.86093252812500 
 N -2.19005612187500 5.10646860937500 4.57657252812500 
 N -4.08246712187500 0.786615609375002 3.60117152812500 
 N -4.17809412187500 4.08184160937500 3.39559452812500 
 N -5.04784012187500 1.25323960937500 7.35409852812500 
 N -5.23939412187500 5.24393260937500 6.97619352812500 
 S -5.75162212187500 1.01978260937500 5.84716252812500 
 S -5.88551812187500 4.61892360937500 5.61771952812500 
 S -2.56161912187500 1.16248260937500 3.32840152812500 
 S -2.64591412187500 4.49328260937500 3.09309852812500 
 S -3.40694412187500 1.77560960937500 7.35463352812500 
 S -3.63490312187500 5.43796560937500 7.02807252812500 
