16

 C -3.27610443437500 1.30213908125000 5.36961437500000 
 C -3.26621543437500 5.43894108125000 5.61956737500000 
 C -4.42845443437500 0.626150081250004 4.83462037500000 
 C -4.39415043437500 4.79614308125000 5.03484337500000 
 N -2.18254943437500 1.28339408125000 4.60992337500000 
 N -2.17418943437500 5.53990008125000 4.83967737500000 
 N -4.17346543437500 0.167095081250004 3.61514537500000 
 N -4.18253543437500 4.45151208125001 3.78006537500000 
 N -5.06129443437500 1.56962308125000 7.11089137500000 
 N -4.99562643437500 5.20366608125000 7.48174837500000 
 S -5.70393843437500 0.529293081250004 5.99434337500000 
 S -5.73782643437500 4.50662008125000 6.14577937500000 
 S -2.60878543437500 0.501393081250004 3.19920037500000 
 S -2.65895943437500 4.83040708125001 3.37214837500000 
 S -3.50034143437500 2.02081608125000 6.90277037500000 
 S -3.38289143437500 5.70784808125000 7.34085237500000 
