16

 C -2.93861558437500 1.39686514062500 5.35768360625000 
 C -3.27600058437500 4.93613814062500 5.55792060625000 
 C -4.21484058437500 0.895572140625000 4.76525460625000 
 C -4.41146458437500 4.30499114062500 4.89918660625000 
 N -2.02640758437500 1.66114214062500 4.40550960625000 
 N -2.29139158437500 5.29190914062500 4.71531760625000 
 N -4.21882858437500 0.786292140625000 3.40457860625000 
 N -4.38088058437500 4.43880414062500 3.57463260625000 
 N -4.63077958437500 1.00452414062500 7.31972460625000 
 N -5.00846058437500 4.50720914062500 7.40372760625000 
 S -5.49400558437500 0.728949140625000 5.93293960625000 
 S -5.78857358437500 4.06871614062500 6.01969260625000 
 S -2.73707458437500 1.35170014062500 2.89751860625000 
 S -2.89476458437500 5.08333314062500 3.15034760625000 
 S -3.12551858437500 1.74390614062500 7.09916360625000 
 S -3.42307658437500 5.00797614062500 7.26187860625000 
