16

 C -3.26365633750000 1.36496258437500 5.31907492500000 
 C -3.17625833750000 5.40156958437500 5.67904592500000 
 C -4.40554733750000 0.639289584375001 4.79547492500000 
 C -4.39355433750000 4.80437858437500 5.06341792500000 
 N -2.16594233750000 1.33178958437500 4.61034592500000 
 N -2.16003233750000 5.50139958437500 4.81279292500000 
 N -4.21321133750000 8.098858437500134E-002 3.59122492500000 
 N -4.27604333750000 4.46431658437500 3.75397692500000 
 N -5.05715333750000 1.62023258437500 7.12857692500000 
 N -4.99166733750000 5.16292658437500 7.46085192500000 
 S -5.73566733750000 0.572662584375001 6.02122992500000 
 S -5.69750633750000 4.47122658437500 6.11431092500000 
 S -2.59160533750000 0.590503584375001 3.20124892500000 
 S -2.69215533750000 4.81920358437500 3.38312892500000 
 S -3.46117533750000 2.03416258437500 6.88132292500000 
 S -3.42964533750000 5.73836558437500 7.40532492500000 
