16

 C -2.88897173437500 1.35953961562500 5.58293768750000 
 C -3.08892373437500 5.12779861562500 5.17174068750000 
 C -4.10004173437500 0.995720615624998 4.83895368750000 
 C -4.37829573437500 4.84824661562500 4.57446468750000 
 N -1.80660673437500 1.44740561562500 4.85045668750000 
 N -2.09453573437500 5.21874161562500 4.28728368750000 
 N -3.89282573437500 0.725945615624998 3.54463868750000 
 N -4.30449473437500 4.50496961562500 3.28203868750000 
 N -4.93040073437500 1.55729061562500 7.24979168750000 
 N -4.71370573437500 4.93324661562500 7.07734868750000 
 S -5.57366573437500 0.856291615624999 5.84488068750000 
 S -5.61971273437500 4.81385561562500 5.74367468750000 
 S -2.31088273437500 0.925684615624998 3.24824968750000 
 S -2.71720673437500 4.83998161562500 2.82798368750000 
 S -3.27801873437500 1.61939361562500 7.26051368750000 
 S -3.12960173437500 5.35490261562500 6.89045568750000 
