16

 C -3.12333393437500 1.57679388437499 5.43682987500000 
 C -3.18095393437500 5.28865388437499 5.97098487500000 
 C -4.31692193437500 1.05761288437500 4.75689487500000 
 C -4.44373193437500 5.00579988437500 5.30867987500000 
 N -2.15519793437500 1.89546688437500 4.57650287500000 
 N -2.11664093437500 5.35564988437500 5.15352387500000 
 N -4.21185493437500 0.846611884374996 3.46398687500000 
 N -4.36845093437500 4.88225888437499 3.97123387500000 
 N -4.91406493437500 1.00117288437499 7.26189487500000 
 N -4.94492093437500 5.15007188437500 7.88993087500000 
 S -5.66150493437500 0.663120884374996 5.77788387500000 
 S -5.74630793437500 4.92889188437499 6.44789287500000 
 S -2.67999893437500 1.42822588437500 3.07297587500000 
 S -2.68538193437500 5.04561288437499 3.66502087500000 
 S -3.30658793437500 1.42205888437500 7.19709187500000 
 S -3.26751793437500 5.39694588437500 7.70072187500000 
