16

 C -3.51955046250000 1.36841614375000 5.51181029062500 
 C -3.04580746250000 5.15430314375000 5.41993529062500 
 C -4.50383346249999 0.565192143749996 4.84112429062500 
 C -4.26104246250000 4.79199914375000 4.64884029062500 
 N -2.45222046250000 1.76100414375000 4.79063329062500 
 N -1.92341546250000 5.10571814375000 4.70744829062500 
 N -4.18011246250000 0.320586143749996 3.56071029062500 
 N -4.00938646249999 4.45214214375000 3.38721729062500 
 N -5.31585346250000 0.915797143749995 7.24279329062500 
 N -5.00869146250000 5.17974114375000 7.11225729062500 
 S -5.88753646250000 0.224189143749996 5.86206329062500 
 S -5.70131146250000 4.92197614375000 5.64749529062500 
 S -2.67947346250000 0.998619143749996 3.27664429062500 
 S -2.37271546250000 4.58773414375000 3.17071729062500 
 S -3.87807346250000 1.72736714375000 7.22243629062500 
 S -3.32556646250000 5.51812914375000 7.13470729062500 
