16

 C -3.14868945000000 1.32876378437500 5.39052076250000 
 C -2.86987945000000 5.18006878437500 5.78139576250000 
 C -4.40204545000000 0.887934784375005 4.67075776250000 
 C -4.06347845000000 4.69011078437500 5.12887776250000 
 N -2.06741745000000 1.54819278437500 4.64373276250000 
 N -1.80380045000000 5.26443578437500 5.02040676250000 
 N -4.25616045000000 0.954603784375005 3.33876676250000 
 N -3.96854645000000 4.56254778437500 3.81940376250000 
 N -4.87929445000000 0.821235784375005 7.17625776250000 
 N -4.66108045000000 5.00511178437501 7.58612676250000 
 S -5.62988645000000 0.358985784375005 5.73061876250000 
 S -5.35904645000000 4.31476778437500 6.27521176250000 
 S -2.70273645000000 1.48347678437500 3.07776076250000 
 S -2.34619745000000 4.90798778437500 3.44998576250000 
 S -3.22032645000000 1.21694778437500 7.06366376250000 
 S -3.06437545000000 5.36668278437500 7.46089976250000 
