16

 C -3.13808290625000 1.42404564687500 5.43776110000000 
 C -3.00622590625000 5.09081864687500 5.50439310000000 
 C -4.43853890625000 1.37381164687500 4.81138510000000 
 C -4.27970090625000 4.90589964687500 4.85455710000000 
 N -2.12402290625000 1.66278164687500 4.60474710000000 
 N -2.01268190625000 5.41369564687500 4.67645910000000 
 N -4.36889690625000 1.44243964687500 3.49841510000000 
 N -4.23236190625000 5.02718064687500 3.52074310000000 
 N -4.87044690625000 1.42446764687500 7.31945810000000 
 N -4.70275290625000 4.83045064687500 7.40925910000000 
 S -5.78166690625000 1.31939764687500 5.87461810000000 
 S -5.58647390625000 4.54196164687500 6.04524810000000 
 S -2.74433990625000 1.62227964687500 3.10562110000000 
 S -2.62618190625000 5.27780764687500 3.13990110000000 
 S -3.22385090625000 1.62558264687500 7.13739710000000 
 S -3.10648490625000 5.04772964687500 7.20084710000000 
