16

 C -2.91457014062500 1.61116057187500 5.77699446250000 
 C -3.15784214062500 5.24912157187500 5.68468346250000 
 C -4.21990714062500 1.38999557187500 5.12795046250000 
 C -4.43030114062500 4.93368457187500 5.05664146250000 
 N -1.95202414062500 1.96204357187500 4.93272946250000 
 N -2.18843414062500 5.48369457187500 4.78967646250000 
 N -4.17554014062500 1.50626557187500 3.81293446250000 
 N -4.37049114062500 4.75161457187500 3.73283746250000 
 N -4.67082414062500 1.58337157187500 7.62953246250000 
 N -4.79427014062500 5.23475557187500 7.62319246250000 
 S -5.53687714062500 1.49826557187500 6.24954846250000 
 S -5.68451914062500 4.83858457187500 6.26901146250000 
 S -2.56453914062500 1.83020557187500 3.40016346250000 
 S -2.76483714062500 5.07867457187500 3.31034846250000 
 S -3.06203214062500 1.77087157187500 7.47492946250000 
 S -3.15127714062500 5.51463757187500 7.42949846250000 
