16

 C -3.22039073125000 1.31060352500000 5.43006460000000 
 C -3.18787673125000 5.38401252500000 5.78944860000000 
 C -4.43413773125000 0.763510525000000 4.76528860000000 
 C -4.33947273125000 5.12439352500000 4.95625260000000 
 N -2.26245073125000 1.68745552500000 4.54402360000000 
 N -2.09838873125000 5.56181252500000 5.03790560000000 
 N -4.27811873125000 0.651084525000000 3.46321560000000 
 N -4.15542573125000 5.02440852500000 3.63539460000000 
 N -5.13492173125000 1.19641552500000 7.16379260000000 
 N -5.10852673125000 5.23062252500000 7.41429960000000 
 S -5.79650373125000 0.362138525000000 5.84975160000000 
 S -5.72540973125000 5.07833852500000 5.91548260000000 
 S -2.76132073125000 1.16962152500000 3.05998760000000 
 S -2.55207073125000 5.33457852500000 3.45895560000000 
 S -3.54734073125000 1.47536852500000 7.16880260000000 
 S -3.47435273125000 5.52190552500000 7.50019660000000 
