16

 C -3.30192760312500 0.914657368750003 5.40169300937500 
 C -3.21533660312500 4.92606036875000 5.62499700937500 
 C -4.59808160312500 0.715805368750003 4.73844300937500 
 C -4.44786260312500 4.57699936875000 4.99239600937500 
 N -2.26846260312500 1.12171936875000 4.61027300937500 
 N -2.23448160312500 5.17065236875000 4.74209100937500 
 N -4.48294460312500 0.826734368750003 3.41495200937500 
 N -4.38719660312500 4.38178236875000 3.69835200937500 
 N -4.98105360312500 0.586403368750004 7.35944100937500 
 N -5.02264760312500 4.63319236875000 7.46094200937500 
 S -5.83108560312500 0.350821368750004 5.91413400937500 
 S -5.82648260312500 4.46710836875000 5.99757900937500 
 S -2.83002160312500 0.979940368750003 3.08567500937500 
 S -2.85256660312500 4.85352936875000 3.20130300937500 
 S -3.33587860312500 0.804403368750004 7.13924000937500 
 S -3.31713460312500 4.75741736875000 7.34318800937500 
