16

 C -3.03116619062500 1.57203971562500 5.40899161562500 
 C -3.16658919062500 5.14006771562500 5.39909661562500 
 C -4.22440519062500 1.17154471562500 4.65189361562500 
 C -4.33905119062500 4.45869571562500 4.86686061562500 
 N -1.85989419062500 1.56757971562500 4.75827161562500 
 N -2.20603519062500 5.27479971562500 4.50511961562500 
 N -3.94170119062500 0.848570715624999 3.39201661562500 
 N -4.26597419062500 4.14281071562500 3.59201361562500 
 N -4.95049719062500 1.27050971562500 7.16985961562500 
 N -4.78631919062500 4.87130571562500 7.36184961562500 
 S -5.62235219062500 0.977553715624999 5.65878961562500 
 S -5.58658719062500 4.33507771562500 6.00772661562500 
 S -2.34593819062500 1.16083571562500 3.15168461562500 
 S -2.77409319062500 4.62822571562500 3.02086761562500 
 S -3.32928419062500 1.74955171562500 7.12208661562500 
 S -3.22574919062500 5.40558571562500 7.21137161562500 
