16

 C -3.19650810937501 1.15870434062500 5.42567067812500 
 C -3.06161110937501 5.28468734062500 5.60175667812500 
 C -4.32211510937501 0.488087340625000 4.79102767812500 
 C -4.25789810937501 4.83578134062500 4.98992767812500 
 N -2.12719110937501 1.28994334062500 4.67798467812500 
 N -1.98733710937501 5.34506734062500 4.78136467812500 
 N -4.04065310937501 5.471434062500080E-002 3.54953767812500 
 N -4.16748310937500 4.48621634062500 3.66271867812500 
 N -5.01990010937500 1.21560334062500 7.21482067812500 
 N -4.92662810937501 5.19397134062500 7.39531767812500 
 S -5.74878610937501 0.631918340625001 5.80285267812500 
 S -5.63926110937501 4.74051134062500 6.00434467812500 
 S -2.42441810937501 0.481215340625001 3.25637067812500 
 S -2.65168710937501 4.89611434062500 3.26785967812500 
 S -3.42087310937501 1.64530334062500 7.03154067812500 
 S -3.34062410937501 5.63345034062500 7.28709567812500 
