16

 C -3.11777457812500 1.23975331562501 5.43663827812500 
 C -3.08345457812500 5.05473731562501 5.63344627812500 
 C -4.23370557812500 0.653544315625005 4.73212227812500 
 C -4.16036757812500 4.52087031562501 4.93031027812500 
 N -2.12846157812500 1.75511331562500 4.65069727812500 
 N -1.98676057812500 5.26915931562501 4.90140827812500 
 N -4.00823857812500 0.703133315625006 3.39799527812500 
 N -3.89980557812500 4.29283131562500 3.65446327812500 
 N -4.77167757812500 0.960382315625006 7.32599527812500 
 N -5.12116057812500 5.09353831562501 7.19446227812500 
 S -5.53013957812500 0.365043315625005 5.99290027812500 
 S -5.61761857812500 4.32185131562501 5.74491727812500 
 S -2.52030257812500 1.36688031562501 3.11178727812500 
 S -2.42823257812500 4.83521531562501 3.33996727812500 
 S -3.29589057812500 1.62998431562501 7.15011727812500 
 S -3.55585557812500 5.58796331562501 7.30351027812500 
