16

 C -2.97630452500000 1.42600334062500 5.35649928750000 
 C -3.40684252500000 5.30828834062500 5.22522528750000 
 C -4.13172752500000 0.956071340624998 4.68293528750000 
 C -4.43918452500000 4.43596334062500 4.74257828750000 
 N -1.85445652500000 1.50466334062500 4.63536628750000 
 N -2.30792552500000 5.32923934062500 4.48906228750000 
 N -3.94927752500000 0.813299340624998 3.39202328750000 
 N -4.26323352500000 3.95070034062500 3.51492228750000 
 N -4.73647452500000 1.28595834062500 7.28797228750000 
 N -5.18763752500000 5.19019934062500 7.02728328750000 
 S -5.44757452500000 0.944987340624999 5.85367128750000 
 S -5.77816252500000 4.30275734062500 5.78618528750000 
 S -2.34847452500000 1.18027134062500 3.04589128750000 
 S -2.71466852500000 4.46996834062500 3.07531628750000 
 S -3.12347952500000 1.68284434062500 7.14606028750000 
 S -3.77828152500000 5.93834034062500 6.84473728750000 
