16

 C -3.15913090312500 1.26392914375001 5.20885111875000 
 C -3.33188090312500 5.01273014375001 5.43306611875000 
 C -4.45933190312500 0.917290143750007 4.68769811875000 
 C -4.57940390312500 4.64198614375001 4.88173711875000 
 N -2.18764890312500 1.17230514375001 4.26608211875000 
 N -2.26768790312500 5.21341214375001 4.62444811875000 
 N -4.49888490312500 0.612129143750007 3.39043411875000 
 N -4.51012290312500 4.50599014375001 3.56087311875000 
 N -4.92015590312500 1.28042714375001 7.18990211875000 
 N -4.81747890312500 4.87997514375001 7.46255411875000 
 S -5.78765790312500 0.802741143750007 5.77753111875000 
 S -5.76618690312500 4.51134114375001 6.19839911875000 
 S -2.99629990312500 0.783456143750007 2.81961911875000 
 S -2.94814090312500 4.88281514375001 3.13959411875000 
 S -3.27486890312500 1.57228014375001 6.93308411875000 
 S -3.25127190312500 5.24909514375001 7.09577811875000 
