16

 C -3.33061763750000 1.48635170000000 5.54635800000000 
 C -3.41194363750000 5.17566570000000 5.20255200000000 
 C -4.53495763750000 0.856392700000002 4.97157900000000 
 C -4.58265663750000 4.62102770000000 4.52306000000000 
 N -2.35681963750000 1.57311670000000 4.65943800000000 
 N -2.41292663750000 5.37095370000000 4.36594900000000 
 N -4.46791363750000 0.569011700000003 3.69733900000000 
 N -4.42087163750000 4.31585470000000 3.22503400000000 
 N -5.00736063750000 0.971124700000003 7.45399200000000 
 N -5.09462463750000 4.65191670000000 7.04738500000000 
 S -5.81458063750000 0.705547700000003 6.05790600000000 
 S -5.81537563750000 4.09610070000000 5.66542600000000 
 S -2.96234563750000 1.06503770000000 3.19574600000000 
 S -2.86732763750000 4.77465270000000 2.84692400000000 
 S -3.49111163750000 1.63555670000000 7.22637500000000 
 S -3.56651963750000 5.19763670000000 6.93807000000000 
