16

 C -3.21733614375000 1.21256156562500 5.27780917812500 
 C -2.90258814375000 5.04777256562500 5.42445417812500 
 C -4.45040714375000 0.797418565625001 4.64414817812500 
 C -4.07786814375000 4.48351556562500 4.80169317812500 
 N -2.17543014375000 1.20932956562500 4.46093417812500 
 N -1.93445914375000 5.35949556562500 4.57211417812500 
 N -4.41355814375000 0.537820565625000 3.34078417812500 
 N -3.96141214375000 4.22814556562500 3.48982117812500 
 N -5.09370314375000 1.63352956562500 6.97181517812500 
 N -4.82730014375000 5.11518456562500 7.19204317812500 
 S -5.85867314375000 0.968599565625000 5.65597517812500 
 S -5.42789714375000 4.36856556562500 5.85282117812500 
 S -2.85084114375000 0.837462565625001 2.96709417812500 
 S -2.44833914375000 4.81634156562500 3.07391717812500 
 S -3.39525114375000 1.63949156562500 6.98355117812500 
 S -3.20640714375000 5.59713156562500 7.08123217812500 
