16

 C -3.50576241562500 1.52668843125000 5.53359403750000 
 C -2.95250341562500 5.19447343125000 5.49766403750000 
 C -4.47121441562500 0.648748431250001 4.93425803750000 
 C -4.18278741562500 4.84255443125000 4.78545003750000 
 N -2.45995341562500 1.76974743125000 4.76253803750000 
 N -1.89783141562500 5.24038243125000 4.71370203750000 
 N -4.16036641562500 0.195317431250001 3.69888903750000 
 N -4.00855241562500 4.57262243125000 3.49317703750000 
 N -5.17786741562500 0.989959431250001 7.32773003750000 
 N -4.79402741562500 4.96888443125000 7.24996703750000 
 S -5.79446341562500 0.287993431250001 6.00674003750000 
 S -5.61026041562500 4.88759743125000 5.77061803750000 
 S -2.72703941562500 1.00591043125000 3.27069803750000 
 S -2.45943941562500 4.84169943125000 3.11413503750000 
 S -3.74458241562500 1.82101443125000 7.19351403750000 
 S -3.16725241562500 5.46131943125000 7.20185503750000 
