16

 C -3.15018086562500 1.16050562500000 5.54525306250000 
 C -3.11642986562500 5.72386362500000 5.59497006250000 
 C -4.39421886562500 0.716740624999999 4.90934706250000 
 C -4.17033586562500 4.92393062500000 4.93067106250000 
 N -2.18404086562500 1.32934062500000 4.67830706250000 
 N -2.03777386562500 5.89523762500000 4.84199906250000 
 N -4.34754686562500 0.679806624999999 3.58062706250000 
 N -3.95087086562500 4.80763062500000 3.63777006250000 
 N -5.06257986562500 1.25129262500000 7.35459906250000 
 N -4.85237986562500 5.06575662500000 7.35580606250000 
 S -5.79382186562500 0.746120624999999 5.93678906250000 
 S -5.54559586562500 4.45700162500000 5.99072006250000 
 S -2.74478886562500 1.03150762500000 3.14772006250000 
 S -2.47069386562500 5.38569862500000 3.30191606250000 
 S -3.42822286562500 1.46597362500000 7.25910406250000 
 S -3.45085186562500 5.93046862500000 7.25994806250000 
