16

 C -3.15844373125000 1.20765537812500 5.59953205625000 
 C -3.07518373125000 5.03483637812500 5.61483905625000 
 C -4.41851173125000 0.819043378125001 4.97710805625000 
 C -4.30027873125000 4.66338037812500 4.95547505625000 
 N -2.13472573125000 1.37977237812500 4.78452705625000 
 N -2.09588873125000 5.36405437812500 4.77551105625000 
 N -4.31631773125000 0.587666378125001 3.70877405625000 
 N -4.21856773125000 4.51086637812500 3.64763705625000 
 N -4.98231173125000 1.14518237812500 7.41298505625000 
 N -4.79270973125000 4.65539937812500 7.42367605625000 
 S -5.70947473125000 0.525249378125001 6.06551705625000 
 S -5.59776173125000 4.35757537812500 6.01649005625000 
 S -2.78027473125000 1.06354737812500 3.27984505625000 
 S -2.71412073125000 5.02647537812500 3.19692605625000 
 S -3.34371273125000 1.48409237812500 7.24601605625000 
 S -3.21642373125000 5.19140737812500 7.34830605625000 
