16

 C -3.33385963750000 1.30603394687500 5.54960735625000 
 C -3.36683663750000 4.86283094687500 5.24120735625000 
 C -4.44946463750000 0.698562946874998 4.92689435625000 
 C -4.59863063750000 4.42108594687500 4.63796435625000 
 N -2.32814163750000 1.55513094687500 4.72065935625000 
 N -2.34670863750000 5.15971394687500 4.44858235625000 
 N -4.36449963750000 0.604834946874998 3.59385735625000 
 N -4.52292463750000 4.46569694687500 3.31503635625000 
 N -5.03136263750000 0.936968946874998 7.37109935625000 
 N -5.13924163750000 4.58667594687500 7.11542235625000 
 S -5.78788763750000 0.348781946874999 6.02896535625000 
 S -6.00081463750000 4.41236494687500 5.70581135625000 
 S -2.80085663750000 1.12566294687500 3.18623935625000 
 S -2.98905363750000 4.96058294687500 2.90917035625000 
 S -3.48132863750000 1.51447394687500 7.27467335625000 
 S -3.54767263750000 5.01209294687500 6.96783435625000 
