16

 C -2.86391468125000 1.92988340312500 5.54869859375000 
 C -3.20320768125000 5.53627040312500 5.28307459375000 
 C -4.17464068125000 1.66844240312500 4.92318759375000 
 C -4.33138768125000 4.90109940312500 4.70053959375000 
 N -1.82443068125000 2.12122140312500 4.71202059375000 
 N -2.24889268125000 5.86814540312500 4.39817659375000 
 N -4.12664268125000 1.59854140312500 3.58318659375000 
 N -4.16479768125000 4.59684140312500 3.39541859375000 
 N -4.62039168125000 1.59006040312500 7.51365959375000 
 N -4.89547868125000 5.01666740312500 7.19601259375000 
 S -5.46563068125000 1.41813640312500 6.10268059375000 
 S -5.63525768125000 4.56854740312500 5.73853859375000 
 S -2.50415668125000 1.86045640312500 3.22467459375000 
 S -2.71128068125000 5.28025840312500 2.95360859375000 
 S -3.08069168125000 2.16159640312500 7.31202859375000 
 S -3.32839268125000 5.38862040312500 7.04017259375000 
