16

 C -3.24510416562500 0.880862834375001 5.46211288750000 
 C -3.21331116562500 4.97014183437500 5.71037688750000 
 C -4.48773716562500 0.663383834375001 4.75131788750000 
 C -4.45484416562500 4.57589883437500 5.08574688750000 
 N -2.22087616562500 1.23305283437500 4.71305988750000 
 N -2.22023216562500 5.26770883437500 4.86768388750000 
 N -4.32271316562500 0.739234834375001 3.41999388750000 
 N -4.36483616562500 4.37228283437500 3.74966588750000 
 N -5.09833416562500 0.642419834375000 7.31517488750000 
 N -4.94388016562500 4.79332683437500 7.61788088750000 
 S -5.83177516562500 0.315963834375001 5.85492688750000 
 S -5.69974016562500 4.20223883437500 6.26111588750000 
 S -2.73769116562500 1.27277083437500 3.14851488750000 
 S -2.78714916562500 4.78285983437500 3.37880088750000 
 S -3.47102916562500 0.805661834375001 7.11948888750000 
 S -3.35309016562500 5.09736683437500 7.43932288750000 
