16

 C -3.11747758437500 1.07392416250000 5.43768047812500 
 C -3.06514758437500 4.69017916250000 5.48146647812500 
 C -4.35600458437500 0.594919162499998 4.78996447812500 
 C -4.39775858437500 4.73465516250000 4.91056047812500 
 N -2.13886058437500 1.41753216250000 4.59508347812500 
 N -2.11577558437500 4.49477116250000 4.59641047812500 
 N -4.30283558437499 0.500512162499998 3.44753847812500 
 N -4.46975958437500 4.63843116250000 3.59716947812500 
 N -4.82249458437500 0.575091162499998 7.29265247812500 
 N -4.87995158437499 4.94547916250000 7.42385247812500 
 S -5.64607158437500 0.205467162499998 5.89903047812500 
 S -5.75816458437500 4.81835816250000 6.02432847812500 
 S -2.76357658437500 1.11371816250000 3.07900447812500 
 S -2.84994258437500 4.42109216250000 3.11580847812500 
 S -3.22853658437500 0.948588162499998 7.16351947812500 
 S -3.16485058437500 4.85113216250000 7.32135947812500 
