16

 C -3.15101713750000 1.34450850937500 5.50952385000000 
 C -3.10274513750000 4.92356550937500 5.69516585000000 
 C -4.40420613750000 0.924900509375004 4.98396685000000 
 C -4.34329713750000 4.44802550937500 5.10834185000000 
 N -2.20936313750000 1.54184650937500 4.59560385000000 
 N -2.13263813750000 5.24826850937500 4.77933285000000 
 N -4.43697913750000 0.687911509375003 3.67140985000000 
 N -4.18590513750000 4.14997550937500 3.82038485000000 
 N -4.91690713750000 1.36692750937500 7.45474685000000 
 N -4.95901713750000 4.73847950937500 7.61336485000000 
 S -5.73434213750000 0.921994509375003 6.14424185000000 
 S -5.71713913750000 4.21390850937500 6.18058585000000 
 S -2.88448813750000 1.00319150937500 3.18670785000000 
 S -2.71490613750000 4.69574150937500 3.29660385000000 
 S -3.34174713750000 1.73064050937500 7.21445285000000 
 S -3.35165913750000 5.29761950937500 7.42960585000000 
