16

 C -2.88759727187500 2.10777223437500 5.44221650625000 
 C -3.07771627187500 5.17984623437500 5.38097450625000 
 C -4.09919327187500 1.61733923437500 4.80420950625000 
 C -4.28031727187500 4.79930423437500 4.67225950625000 
 N -1.87289527187500 2.31922923437500 4.59870150625000 
 N -2.06416027187500 5.46121423437500 4.58506150625000 
 N -4.02266927187500 1.29106323437500 3.50494350625000 
 N -4.10063427187500 4.76794023437500 3.34928850625000 
 N -4.63190127187500 1.82654323437500 7.37760450625000 
 N -4.92436027187500 5.06966423437500 7.13764950625000 
 S -5.42868327187500 1.42457623437500 5.94541450625000 
 S -5.67918227187500 4.55863923437500 5.70593250625000 
 S -2.45116927187500 1.82874723437500 3.14474050625000 
 S -2.51273727187500 5.26318223437500 3.04151250625000 
 S -3.02447727187500 2.25056523437500 7.20620350625000 
 S -3.29053927187500 5.32571523437500 7.10756650625000 
