16

 C -3.11397849687500 1.45706844687500 5.55597620312500 
 C -3.30892649687500 5.11726344687500 5.26000120312500 
 C -4.24874749687500 1.07729144687500 4.75382620312500 
 C -4.38071949687500 4.38957944687500 4.60588720312500 
 N -1.93438049687500 1.62964044687500 4.90857520312500 
 N -2.23865849687500 5.20879244687500 4.48439120312500 
 N -3.92504149687500 0.780143446874996 3.47372220312500 
 N -4.12532249687500 3.89578844687500 3.39260620312500 
 N -5.09542849687500 1.22119844687500 7.25248520312500 
 N -5.32178649687500 5.32525044687500 6.80124520312500 
 S -5.73515049687500 0.916850446874997 5.74225720312500 
 S -5.81450749687500 4.33892244687500 5.61214920312500 
 S -2.37330549687500 1.20465144687500 3.36205820312500 
 S -2.57928349687500 4.40940044687500 3.08153420312500 
 S -3.43123749687500 1.64546544687500 7.26735520312500 
 S -3.72545249687500 5.70060444687500 6.85829620312500 
