16

 C -2.97305761562500 1.34943985000000 5.57159052812500 
 C -3.06433061562500 5.08678285000000 5.16530852812500 
 C -4.11779361562500 0.956112849999999 4.86135752812500 
 C -4.32991461562500 4.86524985000000 4.55196952812500 
 N -1.87450561562500 1.47128485000000 4.78391552812500 
 N -2.06458661562500 5.09037085000000 4.30988652812500 
 N -3.93269361562500 0.749941849999999 3.55708252812500 
 N -4.28859661562500 4.58999785000000 3.22609752812500 
 N -4.93613661562500 1.52734185000000 7.22565452812500 
 N -4.74276361562500 5.03178785000000 7.15569152812500 
 S -5.49167561562500 0.883064849999999 5.83563852812500 
 S -5.60982461562500 4.80505785000000 5.74439252812500 
 S -2.29921461562500 0.921637849999999 3.25688752812500 
 S -2.71115861562500 4.72528085000000 2.78167452812500 
 S -3.27903161562500 1.68244285000000 7.30501452812500 
 S -3.09102061562500 5.34051585000000 6.92910452812500 
