16

 C -3.12927951250000 1.27282340937500 5.40707944062500 
 C -3.25588151250000 5.36005240937500 5.59014944062500 
 C -4.32349851250000 0.601733409375000 4.87056644062500 
 C -4.37744451250000 4.73318740937500 4.99604644062500 
 N -2.08104851250000 1.23234640937500 4.59212344062500 
 N -2.17539251250000 5.61650340937500 4.80844944062500 
 N -4.22234951250000 0.109394409375000 3.63457044062500 
 N -4.16488151250000 4.33048840937500 3.69488744062500 
 N -5.08121451250000 1.36458940937500 7.19565944062500 
 N -4.93430051250000 5.18684240937500 7.50694844062500 
 S -5.69451151250000 0.527749409375000 5.84932944062500 
 S -5.70300551250000 4.69533240937500 6.14329844062500 
 S -2.62354751250000 0.409559409374999 3.20793544062500 
 S -2.59452451250000 4.91994240937500 3.36404644062500 
 S -3.53594351250000 1.97885240937500 7.00219644062500 
 S -3.38957851250000 5.67062040937500 7.28930344062500 
