16

 C -2.87159195312500 1.42783034687500 5.75880989687500 
 C -3.16664395312500 4.75885534687500 5.63629189687500 
 C -4.18295995312500 1.17747634687500 5.09031389687500 
 C -4.43914495312500 4.64328634687500 4.98228789687500 
 N -1.82465795312500 1.45142434687500 4.92615389687500 
 N -2.11334095312500 4.73567934687500 4.77561089687500 
 N -4.10998795312500 1.09856534687500 3.75759889687500 
 N -4.38481895312500 4.68383234687500 3.65206789687500 
 N -4.67930395312500 1.48942634687500 7.67009889687500 
 N -5.02111195312500 4.67078834687500 7.47228389687500 
 S -5.54526795312500 1.24864134687500 6.25702789687500 
 S -5.81709995312500 4.45859634687500 6.05496789687500 
 S -2.49130495312500 1.29132734687500 3.42356789687500 
 S -2.75378495312500 4.76179634687500 3.26172889687500 
 S -3.00696495312500 1.61860834687500 7.53166389687500 
 S -3.40458395312500 4.99959834687500 7.37192889687500 
