16

 C -2.82050652500000 1.43986806562500 5.84366350625000 
 C -3.41416152500000 5.40001406562500 5.59009650625000 
 C -4.07255252500000 1.40694406562500 5.19842150625000 
 C -4.63838352500000 4.99437906562500 4.92381150625000 
 N -1.81190752500000 1.47949306562500 4.98965650625000 
 N -2.33879152500000 5.57364206562500 4.79504550625000 
 N -4.04373952500000 1.32317606562500 3.88131750625000 
 N -4.46712652500000 4.72644406562500 3.61937050625000 
 N -4.58989152500000 1.32958306562500 7.71486250625000 
 N -5.09393952500000 5.02653206562500 7.50950850625000 
 S -5.43933152500000 1.33622906562500 6.30632350625000 
 S -5.97893252500000 4.74879306562500 6.09605550625000 
 S -2.47698252500000 1.41724806562500 3.38321450625000 
 S -2.88983952500000 5.09466506562500 3.25012450625000 
 S -2.91397252500000 1.53627506562500 7.58346550625000 
 S -3.43240552500000 5.23788606562500 7.30418250625000 
