16

 C -2.97535578750000 1.22468671562500 5.54916599687500 
 C -2.93107578750000 5.06842471562500 5.68069999687500 
 C -4.15073278750000 0.651823715625004 4.84403399687500 
 C -4.12156478750000 4.49293471562500 5.09925099687500 
 N -1.87879378750000 1.35170871562500 4.82146799687500 
 N -1.93024278750000 5.30202271562500 4.82042999687500 
 N -3.87093678750000 0.375256715625004 3.57317799687500 
 N -4.04120778750000 4.21272771562500 3.77915799687500 
 N -4.89055578750000 1.30734171562500 7.21844099687500 
 N -4.70885378750000 4.83699471562500 7.60280299687500 
 S -5.50667378750000 0.602041715625004 5.85860599687500 
 S -5.44537578750000 4.32963571562500 6.22068599687500 
 S -2.31041778750000 0.822343715625004 3.28479799687500 
 S -2.56711378750000 4.81429271562500 3.32522399687500 
 S -3.23191678750000 1.63032671562500 7.18075199687500 
 S -3.12084378750000 5.37800271562500 7.38085599687500 
