16

 C -3.19997904687500 1.35464129062500 5.32356932500000 
 C -3.09764404687500 4.90392029062500 5.52470032500000 
 C -4.28550804687500 0.583532290625000 4.82988532500000 
 C -4.40485304687500 4.59230329062500 4.95694332500000 
 N -2.23002604687500 1.60023129062500 4.43877332500000 
 N -2.16334004687500 4.92841529062500 4.57426832500000 
 N -4.13921404687500 0.288597290625001 3.55555932500000 
 N -4.46044304687500 4.60984729062500 3.62974232500000 
 N -4.88093204687500 1.16658029062500 7.23181432500000 
 N -4.73238804687500 4.82392429062500 7.49785732500000 
 S -5.53401704687500 0.285358290625001 5.94915232500000 
 S -5.63391104687500 4.51731829062500 6.12944432500000 
 S -2.71724004687500 0.969669290625001 3.05164232500000 
 S -2.91195704687500 4.73640729062500 3.12466332500000 
 S -3.36521604687500 1.79800929062500 6.99700132500000 
 S -3.11320604687500 5.24573129062500 7.31176332500000 
