16

 C -3.03999553750000 1.15189274375000 5.49336926562500 
 C -3.09188553750000 5.08339074375000 5.53707326562500 
 C -4.19489153750000 0.637463743749999 4.80214826562500 
 C -4.37743753750000 4.83952974375000 4.81146326562500 
 N -1.94691553750000 1.15075774375000 4.72744926562500 
 N -2.00164253750000 5.05550374375000 4.78806326562500 
 N -4.04270653750000 0.210663743749999 3.55378526562500 
 N -4.20732753750000 4.70825674375000 3.52920826562500 
 N -5.07856253750000 1.26111274375000 7.12933526562500 
 N -4.87293953750000 5.25110574375000 7.39310026562500 
 S -5.66673053750000 0.497562743749999 5.70006826562500 
 S -5.71175353750000 4.70688074375000 6.03783926562500 
 S -2.45748953750000 0.620606743749999 3.18055126562500 
 S -2.53531353750000 4.78296874375000 3.25107726562500 
 S -3.41004153750000 1.40561674375000 7.18287226562500 
 S -3.20184053750000 5.51591774375000 7.23031326562500 
