16

 C -3.28430744062500 1.31155326875000 5.51029815625000 
 C -3.38639644062500 5.03229626875000 5.22521115625000 
 C -4.49890144062500 0.800243268750002 4.90245515625000 
 C -4.58721944062500 4.55714126875000 4.59577015625000 
 N -2.32072844062500 1.61203826875000 4.63825315625000 
 N -2.38856344062500 5.25475526875000 4.38476315625000 
 N -4.39799744062500 0.570372268750002 3.58824015625000 
 N -4.47832044062500 4.38611726875000 3.26926615625000 
 N -5.02663144062500 0.894515268750002 7.51254415625000 
 N -5.17061344062500 4.56486826875000 7.11667115625000 
 S -5.80209144062500 0.535755268750002 6.05802815625000 
 S -5.92847744062500 4.28017126875000 5.65983515625000 
 S -2.89638344062500 1.07162026875000 3.14436015625000 
 S -2.94488844062500 4.89390926875000 2.85785215625000 
 S -3.53510444062500 1.60203926875000 7.33060515625000 
 S -3.55283944062500 5.09081626875000 6.97518615625000 
