16

 C -3.18492726562500 1.38975900625000 5.52333893750000 
 C -3.13713526562500 5.38224000625000 5.68677593750000 
 C -4.40561126562500 0.974506006250000 4.77474393750000 
 C -4.34754026562500 4.99682700625000 4.99464193750000 
 N -2.12987526562500 1.78294400625000 4.83527993750000 
 N -2.05527526562500 5.38553800625000 4.93688193750000 
 N -4.18884126562500 1.08686000625000 3.46562193750000 
 N -4.18551926562500 4.86766600625000 3.68417393750000 
 N -5.06283126562500 0.774269006249999 7.22308393750000 
 N -4.83195126562500 5.09309700625000 7.50217593750000 
 S -5.79656726562500 0.532511006249999 5.76365193750000 
 S -5.66154326562500 5.05194300625000 6.11286493750000 
 S -2.62012526562500 1.55481000625000 3.20157693750000 
 S -2.57392826562500 5.15327700625000 3.38616893750000 
 S -3.50900626562500 1.49936800625000 7.21468893750000 
 S -3.29860626562500 5.57437000625000 7.35724293750000 
