16

 C -3.16317603437500 1.55330768125000 5.43982975312500 
 C -3.00431303437500 5.06917968125000 5.56051475312500 
 C -4.46486603437500 1.50516168125000 4.83227075312500 
 C -4.26604203437500 4.87735968125000 4.89092875312500 
 N -2.12865103437500 1.56418868125000 4.59196075312500 
 N -2.03821303437500 5.24574968125000 4.65831075312500 
 N -4.42631403437500 1.58158668125000 3.48516975312500 
 N -4.28769403437500 4.91992768125000 3.56260275312500 
 N -4.85069503437500 1.52806568125000 7.47375475312500 
 N -4.72099003437500 4.55656768125000 7.36884575312500 
 S -5.74629403437500 1.41563468125000 6.08144175312500 
 S -5.51781803437500 4.36696268125000 5.95468775312500 
 S -2.84032803437500 1.68819668125000 3.08913575312500 
 S -2.75467703437500 5.27661368125000 3.17207275312500 
 S -3.22601103437500 1.68193168125000 7.24435675312500 
 S -3.13089203437500 5.00015568125000 7.32280475312500 
