16

 C -3.18972071250001 1.54175531562500 5.38491804375000 
 C -3.14183471250001 5.28879931562500 6.01074504375000 
 C -4.34125071250001 1.00728931562500 4.72658904375000 
 C -4.39321871250001 5.02583831562500 5.31342404375000 
 N -2.12436271250001 1.83023131562500 4.64733304375000 
 N -2.08633371250001 5.36639631562500 5.21510504375000 
 N -4.10787871250001 0.772480315625004 3.42846004375000 
 N -4.32947471250001 4.86770631562500 3.99269204375000 
 N -4.89446171250001 1.03128931562500 7.26035104375000 
 N -4.98273271250001 5.15708031562500 7.83619104375000 
 S -5.63638671250001 0.657127315625004 5.80280904375000 
 S -5.69943871250001 4.90319331562500 6.39727104375000 
 S -2.60442171250001 1.45363831562500 3.04865204375000 
 S -2.74301671250001 5.04951331562500 3.65012804375000 
 S -3.23644071250001 1.45501931562500 7.12583804375000 
 S -3.36623271250001 5.41522831562500 7.75477004375000 
