16

 C -2.92864225000000 1.43340591562500 5.34233721250000 
 C -3.08765725000000 5.10611391562500 5.50930121250000 
 C -4.23249225000000 0.998360915625000 4.68683021250000 
 C -4.21913925000000 4.53826891562500 4.85458721250000 
 N -1.97702425000000 1.65151491562500 4.45290221250000 
 N -2.05908025000000 5.36886791562500 4.68025121250000 
 N -4.19200925000000 0.976535915624999 3.35587621250000 
 N -4.17214125000000 4.57176991562500 3.53190721250000 
 N -4.57984925000000 1.16912091562500 7.21250821250000 
 N -4.96970625000000 4.75180491562500 7.25282821250000 
 S -5.48934825000000 0.968804915624999 5.83929821250000 
 S -5.57987825000000 4.17858191562500 5.84600921250000 
 S -2.65313025000000 1.30491891562500 2.95989621250000 
 S -2.65260425000000 4.98172091562500 3.12068921250000 
 S -2.96331825000000 1.61852391562500 7.01009321250000 
 S -3.41041225000000 5.23643691562500 7.20895521250000 
