16

 C -3.08882453750000 1.21440871875000 5.76970572500000 
 C -3.22958353750000 5.04248371875000 5.54036972500000 
 C -4.36175353750000 0.879479718750000 5.18411672500000 
 C -4.46411553750000 4.56005371875000 4.96400972500000 
 N -2.07077153750000 1.16101771875000 4.92854772500000 
 N -2.18384353750000 5.14001071875000 4.71948372500000 
 N -4.30998653750000 0.590464718750000 3.89465472500000 
 N -4.39513753750000 4.53960571875000 3.61731772500000 
 N -4.72792653750000 1.47137571875000 7.61137972500000 
 N -4.80714253750000 5.00245471875000 7.47894472500000 
 S -5.62500853750000 1.07641871875000 6.29431972500000 
 S -5.73636653750000 4.51754571875000 6.13145772500000 
 S -2.70131253750000 0.698622718750001 3.52281472500000 
 S -2.80384353750000 4.83820771875000 3.20144972500000 
 S -3.13715553750000 1.78011771875000 7.38811272500000 
 S -3.20021653750000 5.43692871875000 7.25609672500000 
