16

 C -3.16581762187500 0.820343803124999 5.69406671562500 
 C -3.02020262187500 5.07685180312500 5.44625971562500 
 C -4.39719462187500 0.558789803124998 4.88850871562500 
 C -4.18144962187500 4.65635680312500 4.73366171562500 
 N -2.09848262187500 1.10752880312500 4.92421171562500 
 N -1.97333462187500 5.27381880312500 4.62405371562500 
 N -4.21199262187500 0.557857803124999 3.58151971562500 
 N -4.00159762187500 4.32664580312500 3.44584671562500 
 N -5.11068962187500 0.713449803124999 7.32300871562500 
 N -4.79821362187500 4.80024280312500 7.22969771562500 
 S -5.84526762187500 0.327314803124999 5.81823571562500 
 S -5.46719062187500 4.24042280312500 5.81429471562500 
 S -2.62174662187500 0.928357803124999 3.39418271562500 
 S -2.40832862187500 4.73399880312500 3.17339171562500 
 S -3.45832762187500 0.984083803124999 7.39467571562500 
 S -3.18374062187500 5.18252680312500 7.17538671562500 
