16

 C -3.10304950937500 1.55012852812500 5.68656385625000 
 C -3.13801050937500 5.22298552812500 5.66157585625000 
 C -4.34596950937500 1.26421352812500 5.08070885625000 
 C -4.32941150937500 4.84652452812500 4.93883885625000 
 N -2.12973250937500 1.74925752812500 4.83328185625000 
 N -2.08561950937500 5.38057452812500 4.87277885625000 
 N -4.37297750937500 1.43323452812500 3.77591985625000 
 N -4.21317650937500 4.93239552812500 3.59508185625000 
 N -4.78682250937500 1.63710052812500 7.61829885625000 
 N -4.86071850937500 4.97362052812500 7.49622485625000 
 S -5.66816050937500 1.29352052812500 6.18178185625000 
 S -5.64052450937500 4.59519952812500 6.06434885625000 
 S -2.77336350937500 1.73655752812500 3.31938985625000 
 S -2.61928750937500 5.27861452812500 3.33009585625000 
 S -3.16913650937500 1.85085752812500 7.33027085625000 
 S -3.19363850937500 5.30057952812500 7.39670785625000 
