16

 C -3.14800695625000 1.53325131562501 5.29459026875000 
 C -3.28374895625000 5.30888431562501 5.78797826875000 
 C -4.27561795625000 0.824432315625009 4.75700726875000 
 C -4.40051395625000 4.72335731562501 5.08573426875000 
 N -2.10211695625000 1.66895231562501 4.51001626875000 
 N -2.17811095625000 5.54093431562501 5.01036326875000 
 N -4.03040895625000 0.298911315625009 3.58453726875000 
 N -4.19068095625000 4.52567231562501 3.76336126875000 
 N -4.87001795625000 1.41972331562501 7.18638726875000 
 N -5.07455295625000 5.09965331562501 7.60216626875000 
 S -5.64078495625000 0.817781315625009 5.84148126875000 
 S -5.74026995625000 4.60802631562501 6.14337126875000 
 S -2.51906795625000 0.887582315625009 3.04263926875000 
 S -2.65311095625000 5.00670431562501 3.49165326875000 
 S -3.30688195625000 1.96571631562501 6.97255426875000 
 S -3.47868095625000 5.60006431562501 7.45223626875000 
