16

 C -3.35244933125000 1.18694000937500 5.48360793125000 
 C -3.24311233125000 5.00172400937500 5.34011593125000 
 C -4.47245233125000 0.644668009375001 4.80671193125000 
 C -4.42994733125000 4.61376200937500 4.62317293125000 
 N -2.30542433125000 1.37550400937500 4.64571893125000 
 N -2.13620133125000 4.99182400937500 4.60634993125000 
 N -4.37591833125000 0.478452009375001 3.49394493125000 
 N -4.16444033125000 4.32228200937500 3.35101493125000 
 N -5.41984733125000 1.14373100937500 7.12342793125000 
 N -4.97330633125000 5.13156300937500 7.15444993125000 
 S -5.87077333125000 0.360371009375001 5.71539193125000 
 S -5.83904733125000 4.81470400937500 5.75655393125000 
 S -2.81515933125000 0.916244009375000 3.09034093125000 
 S -2.52017633125000 4.55624200937500 3.03628693125000 
 S -3.74163133125000 1.52367900937500 7.18051093125000 
 S -3.31352933125000 5.56034300937500 6.93505893125000 
