16

 C -3.17505814062500 1.41532941875000 5.78352478125000 
 C -2.91525014062500 4.99198941875000 5.55246078125000 
 C -4.50768914062500 1.09060541875000 5.27639178125000 
 C -4.20444714062500 4.78314541875000 4.88917578125000 
 N -2.25102114062500 1.31036741875000 4.85672278125000 
 N -1.90083314062500 5.03408341875000 4.73577378125000 
 N -4.57106714062500 0.641029418749996 4.00053978125000 
 N -4.14686214062500 4.64749941875000 3.56365978125000 
 N -4.73711814062500 1.68982741875000 7.76917378125000 
 N -4.74433014062500 4.69302541875000 7.44954178125000 
 S -5.72901014062500 1.14837941875000 6.59697278125000 
 S -5.49524214062500 4.34620741875000 5.96008578125000 
 S -2.95788014062500 0.705044418749996 3.48008478125000 
 S -2.50430014062500 4.78383541875000 3.20387878125000 
 S -3.12837914062500 1.70791041875000 7.46459078125000 
 S -3.11252014062500 4.91586841875000 7.30334578125000 
