16

 C -2.90163863437500 1.57685905312500 5.42722679062500 
 C -3.48800063437500 5.08305605312500 5.17163879062500 
 C -4.02477463437500 0.981149053124999 4.69682579062500 
 C -4.57816263437500 4.31430605312500 4.63861079062500 
 N -1.82906563437500 1.68220005312500 4.63823979062500 
 N -2.37276363437500 5.13197105312500 4.43891079062500 
 N -3.92136263437500 0.850830053124999 3.38857479062500 
 N -4.38106763437500 3.95149705312500 3.37632479062500 
 N -4.78912963437500 1.42376505312500 7.21762379062500 
 N -5.35904963437500 5.10244505312500 6.89475179062500 
 S -5.38041063437500 0.787984053124999 5.81201579062500 
 S -5.95658363437500 4.08702305312500 5.76325279062500 
 S -2.32316763437500 1.11277305312500 3.15909479062500 
 S -2.76967763437500 4.41243405312500 3.00348279062500 
 S -3.26620163437500 2.04215605312500 7.06238779062500 
 S -3.86019063437500 5.72211005312500 6.72274779062500 
