16

 C -2.76745874687500 1.19837821562500 5.44014900625000 
 C -2.98749674687500 5.15850121562500 5.68537400625000 
 C -4.04590074687500 0.831835215625001 4.83205800625000 
 C -4.12974474687500 4.56205121562500 5.02344100625000 
 N -1.76351974687500 1.39148021562500 4.59736500625000 
 N -1.96599274687500 5.41823421562500 4.87655600625000 
 N -4.02822774687500 0.983785215625001 3.50587200625000 
 N -4.04942474687500 4.49707521562500 3.69667100625000 
 N -4.57219674687500 1.28591921562500 7.35678200625000 
 N -4.84271974687500 4.89547721562500 7.45198200625000 
 S -5.42109974687500 0.933917215625001 5.93162000625000 
 S -5.48823274687500 4.24243721562500 6.05220800625000 
 S -2.50428674687500 1.22115121562500 3.07544900625000 
 S -2.47689074687500 4.95687021562500 3.36321500625000 
 S -2.89511674687500 1.56735621562500 7.14060700625000 
 S -3.25652274687500 5.40237721562500 7.35622300625000 
