16

 C -3.27026429062500 1.44363122812500 5.65369618125000 
 C -3.55452929062500 5.34186522812500 5.52756218125000 
 C -4.40712629062500 0.835097228125000 5.05808618125000 
 C -4.57901129062500 4.55451222812500 4.88927818125000 
 N -2.31412629062500 1.79472022812500 4.77283118125000 
 N -2.48279529062500 5.60061222812500 4.73416418125000 
 N -4.35817829062500 0.765475228125000 3.72874018125000 
 N -4.47730429062500 4.48113822812500 3.55122418125000 
 N -4.86736929062500 0.920375228125000 7.57959618125000 
 N -5.38205729062500 4.95009122812500 7.29158218125000 
 S -5.70583129062500 0.492455228125000 6.16741718125000 
 S -5.92009029062500 4.11610422812500 5.91789618125000 
 S -2.79975229062500 1.26802922812500 3.28259818125000 
 S -2.96528929062500 5.03411222812500 3.22190318125000 
 S -3.34500329062500 1.55818622812500 7.39375818125000 
 S -3.81351729062500 5.57453722812500 7.12825518125000 
