16

 C -3.25739255625001 1.09373119062501 5.46961796250000 
 C -3.32152155625001 5.23550919062501 5.20508796250000 
 C -4.48916255625001 0.721691190625005 4.74115296250000 
 C -4.29778755625001 4.45432919062501 4.49442396250000 
 N -2.19657655625001 1.32005219062501 4.66406096250000 
 N -2.38781555625001 5.74244619062501 4.40988896250000 
 N -4.38207155625001 0.684945190625005 3.40371296250000 
 N -4.06216855625001 4.33269619062500 3.21222296250000 
 N -5.18075155625001 0.835100190625006 7.20463896250000 
 N -4.97237855625001 4.54340519062501 7.01155996250000 
 S -5.79442355625001 0.293551190625005 5.73039496250000 
 S -5.58394555625001 3.81708719062501 5.58235596250000 
 S -2.75508455625001 0.985102190625006 3.15991596250000 
 S -2.70303855625001 5.32720519062501 2.86447796250000 
 S -3.58019755625001 1.27050619062501 7.19509796250000 
 S -3.47720955625001 5.30201719062501 6.90635496250000 
