16

 C -3.30715821250000 0.849826949999994 5.46325100937500 
 C -3.27544721250000 5.17924494999999 5.49487400937500 
 C -4.51435521250000 0.567229949999994 4.75804900937500 
 C -4.44844121250000 4.64268094999999 4.77521600937500 
 N -2.23193721250000 1.13131294999999 4.70111900937500 
 N -2.21388021250000 5.40583194999999 4.67609200937500 
 N -4.39068021250000 0.618592949999994 3.42467000937500 
 N -4.32638721249999 4.57013894999999 3.45973400937500 
 N -5.12660121250000 0.733453949999994 7.22980300937500 
 N -5.00275021250000 4.50842694999999 7.29079500937500 
 S -5.88914521250000 0.581469949999994 5.76883300937500 
 S -5.75055821250000 4.06862394999999 5.82461400937500 
 S -2.78937121250000 0.932452949999994 3.13424100937500 
 S -2.78828721250000 5.07943894999999 3.13449000937500 
 S -3.48534921250000 0.891447949999994 7.20187900937500 
 S -3.57364621250000 5.34592294999999 7.22331300937500 
