16

 C -3.26956378750000 1.42842648437500 5.52859117187500 
 C -3.32719778750000 5.13601548437500 5.48253017187500 
 C -4.49376478750000 1.07587648437500 4.87082517187500 
 C -4.48913078750000 4.54592748437500 4.87599017187500 
 N -2.25075778750000 1.54722548437500 4.71902317187500 
 N -2.35523278750000 5.33465948437500 4.59348417187500 
 N -4.41354178750000 0.924106484375001 3.56629317187500 
 N -4.52439978750000 4.48340448437500 3.52662417187500 
 N -5.03797878750000 1.27119448437500 7.41126617187500 
 N -5.05226378750000 4.92885948437500 7.39508917187500 
 S -5.80145078750000 0.727045484375000 6.00071317187500 
 S -5.82182178750000 4.33450248437500 6.02990617187500 
 S -2.81150978750000 1.25767248437500 3.16189417187500 
 S -2.95074278750000 4.89204348437500 3.10799617187500 
 S -3.39507978750000 1.47222748437500 7.33086017187500 
 S -3.43801978750000 5.13119248437500 7.21417917187500 
