16

 C -3.11747066875000 1.62199476250000 5.47060299062500 
 C -3.04475166875000 5.31348076250000 5.48205699062500 
 C -4.30801366875000 1.19570376250000 4.83692599062500 
 C -4.28834366875000 4.96207776250000 4.84139199062500 
 N -2.10445766875000 1.83919576250000 4.67735199062500 
 N -2.00695166875000 5.42557276250000 4.65986199062500 
 N -4.18240166875000 1.09239376250000 3.52125399062500 
 N -4.21117466875000 4.84727476250000 3.53222399062500 
 N -4.76475066875000 1.36623176250000 7.31627299062500 
 N -4.77959866875000 4.99712876250000 7.41742799062500 
 S -5.64370766875000 1.06414876250000 5.89549099062500 
 S -5.58964366875000 4.92201676250000 5.93481799062500 
 S -2.50127966875000 1.38196376250000 3.18839199062500 
 S -2.58874666875000 5.12523576250000 3.12343899062500 
 S -3.17112766875000 1.68550976250000 7.14544299062500 
 S -3.14046366875000 5.40438176250000 7.24132999062500 
