16

 C -3.10509023437500 1.45722143750000 5.49324318437500 
 C -3.27330223437500 5.05104043750000 5.41059618437500 
 C -4.23697923437500 0.832822437500002 4.81973318437500 
 C -4.51033923437500 4.49441843750000 4.85401218437500 
 N -2.00943223437500 1.58031743750000 4.75981918437500 
 N -2.26448923437500 5.12465143750000 4.55912618437500 
 N -4.03764223437500 0.565122437500002 3.53668418437500 
 N -4.46050923437500 4.31862943750000 3.52837818437500 
 N -4.96896123437500 1.38076643750000 7.18507818437500 
 N -4.91484423437500 5.26106243750000 7.27976018437500 
 S -5.66603323437500 0.828949437500002 5.75103518437500 
 S -5.77106523437500 4.53351443750000 6.07429318437500 
 S -2.44515723437500 1.05323543750000 3.24462618437500 
 S -2.85759323437500 4.63196543750000 3.09491118437500 
 S -3.35444623437500 1.89620243750000 7.12409418437500 
 S -3.31188323437500 5.61699443750000 7.05098318437500 
