16

 C -3.77262089687500 1.15183332500000 5.69944802500000 
 C -3.17086889687500 4.97446932500000 5.32612202500000 
 C -4.92917989687500 0.712476325000002 4.90764302500000 
 C -4.41542189687500 4.50554232500000 4.76461602500000 
 N -2.63745589687500 1.46620032500000 5.03612202500000 
 N -2.15026789687500 5.02412332500000 4.49071602500000 
 N -4.56293989687500 0.559523325000002 3.62077302500000 
 N -4.28152689687500 4.16758232500000 3.49504702500000 
 N -5.59662989687500 0.674117325000001 7.34097902500000 
 N -4.72984289687500 5.02682432500000 7.28248302500000 
 S -6.27870889687500 0.230101325000001 5.85785502500000 
 S -5.55134289687500 4.27340332500000 6.04355102500000 
 S -3.08911989687500 1.19339432500000 3.49695602500000 
 S -2.76381089687500 4.59895432500000 3.01989102500000 
 S -4.02618489687500 1.28279032500000 7.36655102500000 
 S -3.18718989687500 5.51498332500000 6.98279402500000 
