16

 C -3.13568661875000 1.55033937187499 5.32313335937500 
 C -3.28226361875000 5.25330637187499 5.74306335937500 
 C -4.26194861875000 0.813426371874995 4.79265235937500 
 C -4.40526161875000 4.69954337187499 5.07156535937500 
 N -2.13352061875000 1.64048137187500 4.47813335937500 
 N -2.22992161875000 5.49446337187500 5.02817135937500 
 N -3.99660761875000 0.246985371874994 3.61699335937500 
 N -4.17586961875000 4.51876137187500 3.78487535937500 
 N -4.89755761875000 1.42382937187500 7.21439035937500 
 N -5.04707961875000 5.06525737187499 7.58910435937500 
 S -5.63199761875000 0.821740371874995 5.81039135937500 
 S -5.78759861875000 4.59446837187499 6.16806935937500 
 S -2.58078761875000 0.841500371874995 3.04454235937500 
 S -2.62599661875000 5.01595337187500 3.46934735937500 
 S -3.33484161875000 1.99158237187499 6.98624935937500 
 S -3.45690261875000 5.64549437187500 7.40658735937500 
