16

 C -3.43682650312500 1.51835874062500 5.55846570937500 
 C -3.07053150312500 5.12146274062500 5.41723970937500 
 C -4.41088950312500 0.656086740625001 4.94398570937500 
 C -4.24201150312500 4.75805874062500 4.66609070937500 
 N -2.46076650312500 1.83288174062500 4.67601770937500 
 N -1.96288350312500 5.16663274062500 4.72686670937500 
 N -4.16381950312500 0.258498740625001 3.70449670937500 
 N -3.97359050312500 4.47557074062500 3.42225770937500 
 N -5.25960350312500 0.847234740625000 7.32344070937500 
 N -4.88939250312500 5.02310274062500 7.24711570937500 
 S -5.83867450312500 0.264572740625001 5.82781870937500 
 S -5.65993250312500 4.98135574062500 5.77054970937500 
 S -2.73897750312500 0.960228740625000 3.29397170937500 
 S -2.31638550312500 4.70541674062500 3.21137770937500 
 S -3.87630850312500 1.75522374062500 7.23107870937500 
 S -3.29886050312500 5.48382774062500 7.04506270937500 
