16

 C -3.17073947812500 1.26968735625001 5.69998863125000 
 C -3.01269247812500 4.68692435625001 5.42249763125000 
 C -4.39258747812500 0.838332356250006 5.12054963125000 
 C -4.21300547812500 4.21201335625001 4.79528363125000 
 N -2.08882047812500 1.24683435625001 4.90409063125000 
 N -1.91180447812500 4.71752935625001 4.65141863125000 
 N -4.31899447812500 0.639538356250006 3.80600463125000 
 N -4.12707947812500 4.01522335625001 3.49483063125000 
 N -4.81119947812500 1.08705635625001 7.66879463125000 
 N -4.92772347812500 4.78787935625001 7.23802263125000 
 S -5.65513547812500 0.773989356250007 6.24692863125000 
 S -5.56252747812500 4.02930735625001 5.93353963125000 
 S -2.75965247812500 0.897880356250006 3.37394563125000 
 S -2.51138147812500 4.31462235625001 3.09931963125000 
 S -3.23927647812500 1.60908735625001 7.41251563125000 
 S -3.35003747812500 5.13700835625001 7.09447863125000 
