16

 C -3.16772195000000 1.36921578750000 5.57133950000000 
 C -2.97386595000000 5.24119678750000 5.42488350000000 
 C -4.39932995000000 0.787847787499996 5.05678650000000 
 C -4.22735395000000 4.87786278750000 4.79093950000000 
 N -2.19845995000000 1.55949578750000 4.64226750000000 
 N -1.94091895000000 5.46067278750000 4.60659850000000 
 N -4.36968295000000 0.536863787499997 3.75774750000000 
 N -4.18108895000000 4.86603178750000 3.42636350000000 
 N -4.93191595000000 1.25712078750000 7.53771050000000 
 N -4.55092995000000 5.09905678750000 7.34679450000000 
 S -5.60048495000000 0.482971787499997 6.19601350000000 
 S -5.48575995000000 4.65029478750000 6.04028250000000 
 S -2.88485595000000 1.04404778750000 3.17561350000000 
 S -2.61191795000000 5.29157878750000 3.08302150000000 
 S -3.29895995000000 1.83806178750000 7.29942050000000 
 S -2.95876195000000 5.41025478750000 7.15238350000000 
