16

 C -3.11437742500000 1.09694298437500 5.42527841875000 
 C -2.76469542500000 5.13887598437500 5.44913341875000 
 C -4.41612142500000 0.713992984375003 4.94821141875000 
 C -3.98295442500000 4.89566098437500 4.71194241875000 
 N -2.20494742500000 1.11506098437500 4.46625641875000 
 N -1.70585842500000 5.34889598437500 4.65775041875000 
 N -4.46842842500000 0.497116984375003 3.65056241875000 
 N -3.81529942500000 4.67157098437500 3.39804841875000 
 N -4.77290042500000 1.08076698437500 7.44898241875000 
 N -4.68677542500000 4.86289498437500 7.17020941875000 
 S -5.70833842500000 0.789901984375003 6.08106041875000 
 S -5.44889242500000 4.64738598437500 5.66167841875000 
 S -2.93828042500000 0.728635984375003 3.01454041875000 
 S -2.25856142500000 5.12945098437500 3.10209041875000 
 S -3.22215642500000 1.55653498437500 7.11376741875000 
 S -3.06607042500000 5.32184598437500 7.15829841875000 
