16

 C -3.64529990625000 1.12426948125000 5.66525974375000 
 C -2.98177990625000 4.99616848125000 5.36508774375000 
 C -4.81933490625000 0.569923481250001 4.95853974375000 
 C -4.21868390625000 4.49376948125000 4.83023174375000 
 N -2.68530390625000 1.56652348125000 4.80097874375000 
 N -2.05050990625000 5.12460048125000 4.42922774375000 
 N -4.65285690625000 0.433475481250000 3.63096174375000 
 N -4.17593990625000 4.10920748125000 3.57053674375000 
 N -5.52665190625000 0.598430481250000 7.40326574375000 
 N -4.72550590625000 4.93821248125000 7.29399674375000 
 S -6.20482890625000 0.154099481250000 5.94704574375000 
 S -5.51792490625000 4.28384848125000 5.97952574375000 
 S -3.18680990625000 1.04724948125000 3.30622874375000 
 S -2.65985590625000 4.51970148125000 3.00489174375000 
 S -3.93263090625000 1.17258848125000 7.37818974375000 
 S -3.16296590625000 5.43919048125000 7.08933974375000 
