16

 C -3.51875434062500 1.11421511250000 5.60577065000000 
 C -2.98821534062500 5.03625011250000 5.47119965000000 
 C -4.63816734062500 0.526000112499999 4.92440465000000 
 C -4.17111634062500 4.50113011250000 4.83474365000000 
 N -2.51030334062500 1.38731511250000 4.79216265000000 
 N -1.95213434062500 5.21747511250000 4.64254965000000 
 N -4.52954234062500 0.482483112499999 3.60697165000000 
 N -4.02514634062500 4.26380011250000 3.52720365000000 
 N -5.31268734062500 0.645690112500000 7.49996065000000 
 N -4.68025834062500 4.81137611250000 7.40180665000000 
 S -6.04705934062500 0.234273112499999 6.01936465000000 
 S -5.52832534062500 4.37518111250000 6.03155565000000 
 S -2.85845034062500 0.867202112499999 3.22647565000000 
 S -2.44783434062500 4.68523311250000 3.13613365000000 
 S -3.76415534062500 1.18112411250000 7.32345265000000 
 S -3.13296434062500 5.36693711250000 7.13994465000000 
