16

 C -3.29808197812500 1.20572705312500 5.21074796250000 
 C -2.98944197812500 5.05303805312500 5.39869896250000 
 C -4.52469697812500 0.783451053125002 4.52670796250000 
 C -4.20404597812500 4.48433605312500 4.82049596250000 
 N -2.19810297812500 1.32931805312500 4.45451696250000 
 N -1.95243397812500 5.27277505312500 4.60237596250000 
 N -4.33216197812500 0.560085053125002 3.20781396250000 
 N -3.94488397812500 3.96113005312500 3.62384496250000 
 N -5.16050397812500 1.34993605312500 7.01071996250000 
 N -4.85569597812500 5.08507205312500 7.21211596250000 
 S -5.91631197812500 0.876635053125002 5.62660596250000 
 S -5.54997097812500 4.44413905312500 5.86750696250000 
 S -2.72548897812500 0.921799053125002 2.92553296250000 
 S -2.44292797812500 4.55989005312500 3.17815396250000 
 S -3.52963697812500 1.72760005312500 6.86373396250000 
 S -3.26488197812500 5.55197405312500 7.03090896250000 
