16

 C -3.20669895000000 0.797862562499996 5.65109798750000 
 C -2.99607795000000 5.11840956250000 5.40721798750000 
 C -4.36822495000000 0.528287562499997 4.89293098750000 
 C -4.21732195000000 4.66188556250000 4.73341898750000 
 N -2.13778495000000 1.03609456250000 4.91242698750000 
 N -1.94822895000000 5.23943056250000 4.61514098750000 
 N -4.19136795000000 0.702903562499997 3.57217198750000 
 N -4.04639795000000 4.38965156250000 3.45105098750000 
 N -5.10520295000000 0.649977562499997 7.30342898750000 
 N -4.81978095000000 4.77893156250000 7.17911898750000 
 S -5.79775795000000 0.350269562499997 5.82675698750000 
 S -5.48856695000000 4.19920056250000 5.79848098750000 
 S -2.57951295000000 0.909894562499996 3.33190698750000 
 S -2.46198495000000 4.67184756250000 3.11867698750000 
 S -3.45599595000000 0.979457562499997 7.42203498750000 
 S -3.27260595000000 5.21505356250000 7.17299098750000 
