16

 C -3.21430517500000 1.50657744062500 5.41057525000000 
 C -3.41732817500000 5.30080044062500 5.30058925000000 
 C -4.29353517500000 0.757481440624998 4.96798225000000 
 C -4.46467017500000 4.54961844062500 4.65141225000000 
 N -2.31785717500000 1.66457244062500 4.47186025000000 
 N -2.37839917500000 5.60142544062500 4.51236725000000 
 N -4.30163717500000 0.413939440624998 3.70706425000000 
 N -4.20122517500000 4.38474244062500 3.32662525000000 
 N -4.75224817500000 1.21403844062500 7.43547725000000 
 N -5.15397317500000 4.81524544062500 7.18373025000000 
 S -5.55046217500000 0.534455440624998 6.13612625000000 
 S -5.78573917500000 4.06568844062500 5.84503925000000 
 S -2.89719717500000 0.966033440624998 3.08332725000000 
 S -2.78261617500000 5.11433244062500 2.98406425000000 
 S -3.24439017500000 1.91671544062500 7.08618025000000 
 S -3.63122917500000 5.56678044062500 6.99003325000000 
