16

 C -3.16790237500000 1.13902790312500 5.48943644062500 
 C -2.87147237500000 5.23209090312500 5.52429444062500 
 C -4.50556737500000 0.733610903125001 5.00462944062500 
 C -4.06295737500000 4.89413390312500 4.74298844062500 
 N -2.25319737500000 1.35624990312500 4.54135344062500 
 N -1.80585637500000 5.20744490312500 4.73386844062500 
 N -4.58731937500000 0.552759903125001 3.69321244062500 
 N -3.93406837500000 4.86918790312500 3.41101644062500 
 N -4.84615837500000 1.19317190312500 7.57066544062500 
 N -4.79485337500000 4.94477490312500 7.16321844062500 
 S -5.73899037500000 0.692988903125001 6.25469044062500 
 S -5.51681737500000 4.61986890312500 5.67225344062500 
 S -3.09481737500000 0.905429903125001 3.13208844062500 
 S -2.31323937500000 5.10456690312500 3.11794144062500 
 S -3.21254537500000 1.28408790312500 7.23724344062500 
 S -3.11029037500000 5.08074790312500 7.22095244062500 
