16

 C -3.22158230937500 1.59793119375000 5.44023142500000 
 C -2.98234430937500 5.12373619375000 5.56636142500000 
 C -4.50604330937500 1.11947619375000 4.97189242500000 
 C -4.19818530937500 4.65065919375000 4.99724142500000 
 N -2.24458130937500 1.74406219375000 4.56630342500000 
 N -1.95227130937500 5.18283319375000 4.77329742500000 
 N -4.43598130937500 0.927139193750000 3.67233942500000 
 N -4.10285830937500 4.48435119375000 3.71641842500000 
 N -4.85728430937500 1.28411419375000 7.45269542500000 
 N -4.78057630937500 5.10614719375000 7.51897342500000 
 S -5.77276530937500 0.944860193750000 6.14886542500000 
 S -5.56639430937500 4.65857719375000 6.12046442500000 
 S -3.02261630937500 1.43947419375000 3.07418442500000 
 S -2.55562230937500 4.76654119375000 3.25015842500000 
 S -3.24078430937500 1.73457819375000 7.16555542500000 
 S -3.16266030937500 5.39625719375000 7.31674942500000 
