16

 C -2.75403220625000 1.20495125312500 5.42866253125000 
 C -2.98789820625000 5.16482425312500 5.67668453125000 
 C -4.04562920625000 0.842319253124999 4.83385653125000 
 C -4.12956320625000 4.55588525312500 5.02967353125000 
 N -1.76443020625000 1.40202125312500 4.58794353125000 
 N -1.96284820625000 5.41052225312500 4.87362153125000 
 N -4.03967720625000 0.994530253124999 3.51415953125000 
 N -4.06021920625000 4.49834825312500 3.69482253125000 
 N -4.57917620625000 1.28746425312500 7.36510553125000 
 N -4.84650120625000 4.90204525312500 7.45232253125000 
 S -5.41826720625000 0.944986253124999 5.94034653125000 
 S -5.48308720625000 4.24631025312500 6.04330253125000 
 S -2.50785720625000 1.22640825312500 3.05656953125000 
 S -2.47926820625000 4.96258425312500 3.35711353125000 
 S -2.89603120625000 1.57344525312500 7.14465553125000 
 S -3.26355520625000 5.40319725312500 7.37320553125000 
