16

 C -3.04706804687500 1.27704594062500 5.55498840937500 
 C -2.94334104687500 5.15663394062500 5.60913440937500 
 C -4.20608204687500 0.797787940625000 4.84825240937500 
 C -4.09899104687500 4.49286194062500 5.02805140937500 
 N -1.93801804687500 1.32742394062500 4.81951440937500 
 N -1.92093504687500 5.37964794062500 4.80168740937500 
 N -4.00411504687500 0.476227940625000 3.55561340937500 
 N -3.96799004687500 4.33003894062500 3.71787040937500 
 N -4.84400404687500 0.984444940624999 7.30365840937500 
 N -4.69660604687500 4.66292194062500 7.46476340937500 
 S -5.56285904687500 0.628498940625000 5.81149340937500 
 S -5.45687404687500 4.33630494062500 6.03400940937500 
 S -2.46933404687500 0.833964940624999 3.33200840937500 
 S -2.46144704687500 4.89649894062500 3.30558840937500 
 S -3.21893904687500 1.28703594062500 7.26698040937500 
 S -3.16711804687500 5.36124594062500 7.33331340937500 
