16

 C -3.04564750937500 1.15965789375000 5.47584852500000 
 C -3.11494350937500 5.11970889375000 5.53883552500000 
 C -4.23493550937500 0.607041893749998 4.77468452500000 
 C -4.34945050937500 4.84407289375000 4.86213752500000 
 N -1.95968850937500 1.20029789375000 4.70041852500000 
 N -2.03743750937500 5.09074589375000 4.77794952500000 
 N -4.05600450937500 0.157338893749999 3.54909152500000 
 N -4.22070450937500 4.68889989375000 3.51584152500000 
 N -5.07832450937500 1.27002389375000 7.12991552500000 
 N -4.88225250937500 5.27498189375000 7.42617552500000 
 S -5.68450650937500 0.522285893749999 5.71549152500000 
 S -5.69543350937500 4.69491689375000 6.03995552500000 
 S -2.44910950937500 0.582148893749999 3.20898452500000 
 S -2.50945350937500 4.81038789375000 3.25648352500000 
 S -3.40801850937500 1.44112589375000 7.16797552500000 
 S -3.22355950937500 5.54249189375000 7.22825752500000 
