16

 C -2.96893572187500 1.42444972187500 5.44664656875000 
 C -3.35374172187500 5.42518472187500 5.32357956875000 
 C -4.22136872187500 0.996282721874999 4.81156456875000 
 C -4.36232872187500 4.52433572187500 4.77912256875000 
 N -1.91901272187500 1.45079272187500 4.58734056875000 
 N -2.30261672187500 5.66634372187500 4.53607656875000 
 N -4.10499172187500 0.724921721874998 3.53993456875000 
 N -4.08161972187500 4.07222072187500 3.54503556875000 
 N -4.67791872187500 0.966487721874999 7.25798756875000 
 N -5.12943072187500 5.37874172187500 7.10737156875000 
 S -5.61370772187500 0.966505721874999 5.87906256875000 
 S -5.69645672187500 4.42839872187500 5.86642356875000 
 S -2.58619372187500 1.04009972187500 3.07754156875000 
 S -2.55808872187500 4.76378272187500 3.15631156875000 
 S -3.02656072187500 1.40447772187500 7.14503956875000 
 S -3.60668472187500 5.90706272187500 6.96287356875000 
