16

 C -3.02303062187500 1.31339285000000 5.72888992187500 
 C -3.19079062187500 5.11274985000000 5.44995492187500 
 C -4.17224262187500 0.711275850000002 5.11438992187500 
 C -4.37051562187500 4.51156485000000 4.83016292187500 
 N -1.93117062187500 1.46787385000000 4.95224092187500 
 N -2.18610262187500 5.23624785000000 4.59370992187500 
 N -3.94781462187500 0.274645850000002 3.87053992187500 
 N -4.28325862187500 4.26103185000000 3.53288392187500 
 N -4.72767462187500 0.787496850000002 7.66314592187500 
 N -4.88970262187500 4.73624785000000 7.40515192187500 
 S -5.50956662187500 0.344949850000002 6.25105892187500 
 S -5.66620362187500 4.25960385000000 5.98549792187500 
 S -2.42516662187500 0.761283850000002 3.50208092187500 
 S -2.69418362187500 4.61017585000000 3.12941992187500 
 S -3.21782662187500 1.47682785000000 7.46608392187500 
 S -3.29495362187500 5.17641685000000 7.21298392187500 
