16

 C -3.14464610625000 1.06233021250000 5.48817470000000 
 C -3.16749310625000 5.54246621250000 5.50831670000000 
 C -4.39572310625000 0.844422212500000 4.89929770000000 
 C -4.18796310625000 4.77824421250000 4.85146770000000 
 N -2.09863210625000 1.11546121250000 4.66661070000000 
 N -2.08475610625000 5.74912521250000 4.77622970000000 
 N -4.35015610625000 0.866190212500000 3.56086070000000 
 N -3.98413910625000 4.61357621250000 3.56556570000000 
 N -4.82948010625000 1.09381521250000 7.39402870000000 
 N -5.00760710625000 5.20518221250000 7.27877970000000 
 S -5.76634810625000 0.736614212500000 5.99913370000000 
 S -5.51870610625000 4.44815521250000 5.92451870000000 
 S -2.68801310625000 1.01486521250000 3.14450470000000 
 S -2.47573210625000 5.16954021250000 3.25544570000000 
 S -3.19384510625000 1.41065821250000 7.17119270000000 
 S -3.53873810625000 5.98484921250000 7.17456170000000 
