16

 C -3.02555781875000 1.23672794375000 5.40766532500000 
 C -3.16698381875000 5.46152794375000 5.43824932500000 
 C -4.29605381875000 1.04346794375000 4.78743032500000 
 C -4.28947281875000 4.75742694375000 4.83515132500000 
 N -2.01713081875000 1.29984694375000 4.57773832500000 
 N -2.17598581875000 5.76081194375000 4.61386632500000 
 N -4.27458781875000 0.800657943750000 3.46307032500000 
 N -3.99727181875000 4.28855294375000 3.62122632500000 
 N -4.75167281875000 0.949841943750000 7.40315132500000 
 N -5.13295181875000 5.39376794375000 7.19774132500000 
 S -5.57393981875000 0.861478943750000 5.99038932500000 
 S -5.63269981875000 4.39955994375000 5.86493832500000 
 S -2.67485281875000 0.964676943750000 3.10412632500000 
 S -2.51270881875000 4.98243694375000 3.18706632500000 
 S -3.16610181875000 1.33614894375000 7.21079532500000 
 S -3.52486981875000 5.93263394375000 7.07519432500000 
