16

 C -3.12749466250000 1.32219429375000 5.27694174375000 
 C -2.95074166250000 5.16199929375000 5.57405374375000 
 C -4.31693166250000 0.888504293749998 4.62715874375000 
 C -4.24473466250000 4.73385929375000 5.06837474375000 
 N -2.21112966250000 1.79406129375000 4.47983174375000 
 N -1.98798066250000 5.23989929375000 4.63636574375000 
 N -4.20834066250000 0.985586293749998 3.30586574375000 
 N -4.23492166250000 4.51439929375000 3.75644374375000 
 N -4.66415866250000 0.575863293749998 7.13972774375000 
 N -4.59895966250000 5.07540029375000 7.61587974375000 
 S -5.48541566250000 0.221380293749998 5.74730374375000 
 S -5.40875266250000 4.47221329375000 6.29598474375000 
 S -2.71694066250000 1.57966829375000 2.91388074375000 
 S -2.76864566250000 4.82254329375000 3.20567774375000 
 S -3.18830566250000 1.24752429375000 6.96491774375000 
 S -3.04451766250000 5.51694229375000 7.28084674375000 
