16

 C -3.17846932187500 1.08607420625001 5.59789989062500 
 C -3.56865132187500 4.95538220625001 5.08731389062500 
 C -4.38829532187500 0.691832206250005 4.99201289062500 
 C -4.72673932187500 4.28392520625001 4.51399989062500 
 N -2.27394932187500 1.46157720625000 4.76254789062500 
 N -2.58890632187500 5.31412520625000 4.25919789062500 
 N -4.38730132187500 0.676909206250005 3.67504889062500 
 N -4.48378132187500 3.92456520625000 3.24713489062500 
 N -4.72869932187500 0.771822206250005 7.53101789062500 
 N -5.31647432187500 4.70676120625001 6.92063589062500 
 S -5.63325132187500 0.560719206250005 6.14572989062500 
 S -5.94254032187500 3.85852420625000 5.67660489062500 
 S -2.80328132187500 1.06020820625000 3.23496889062500 
 S -3.00662832187500 4.55061220625000 2.80501589062500 
 S -3.14659232187500 1.27727820625001 7.30674289062500 
 S -3.71810832187500 5.19753420625000 6.77094289062500 
