16

 C -3.39297980937500 1.16276124375000 5.83045615000000 
 C -3.19387980937500 4.97979724375000 5.23743215000000 
 C -4.58603280937500 0.864795243750000 5.04181015000000 
 C -4.40648980937500 4.55845824375000 4.57081915000000 
 N -2.33092480937500 1.43184024375000 5.09516615000000 
 N -2.20176480937500 5.23488624375000 4.41809315000000 
 N -4.42489980937500 0.813240243750000 3.72667115000000 
 N -4.28342780937500 4.40382024375000 3.26957415000000 
 N -5.25326080937500 0.838094243750000 7.54467815000000 
 N -5.05115880937500 4.81982024375000 7.03122715000000 
 S -6.01327680937500 0.723488243750000 6.06236715000000 
 S -5.81272080937500 4.49867524375000 5.61531215000000 
 S -2.81081980937500 1.24412324375000 3.52294415000000 
 S -2.71846180937500 4.82429124375000 2.87204815000000 
 S -3.67238280937500 1.46129524375000 7.52314915000000 
 S -3.46600380937500 5.38005924375000 6.86622715000000 
