16

 C -3.16520815312500 1.68554385937500 5.40695351250000 
 C -3.67728015312500 5.02205085937500 5.02067351250000 
 C -4.11807415312500 0.728093859375000 4.91998251250000 
 C -4.71776515312500 4.20955485937500 4.39121351250000 
 N -2.14092315312500 1.88543785937500 4.55144051250000 
 N -2.64252915312500 5.19670785937500 4.23396151250000 
 N -3.93739715312500 0.291729859375001 3.67744951250000 
 N -4.50494915312500 3.94199685937500 3.10416451250000 
 N -4.85560015312500 1.35711685937500 7.40795151250000 
 N -5.40151315312500 4.78540185937500 6.82160151250000 
 S -5.52697615312500 0.532859859375000 6.12411951250000 
 S -5.99902815312500 3.92158285937500 5.56740451250000 
 S -2.58497815312500 1.09527685937500 3.15300851250000 
 S -2.97828915312500 4.58920485937500 2.79038551250000 
 S -3.39929315312500 2.11910285937500 7.17283851250000 
 S -3.85130115312500 5.21144885937500 6.74307651250000 
