16

 C -2.93949613437500 1.48831927187500 5.79423801875000 
 C -3.21201713437500 4.57906327187500 5.59758001875000 
 C -4.20837613437500 1.20886227187500 5.13792801875000 
 C -4.44290913437500 4.44899727187500 4.89588001875000 
 N -1.97699613437500 1.55490527187500 4.89647301875000 
 N -2.12068313437500 4.66940727187500 4.83884301875000 
 N -4.13076413437500 0.961007271874998 3.85643901875000 
 N -4.30582413437500 4.48044827187500 3.57154301875000 
 N -4.74504613437500 1.52092527187500 7.63378201875000 
 N -4.91328413437500 4.56895827187500 7.43201901875000 
 S -5.53489113437500 1.24634527187500 6.18926901875000 
 S -5.74356913437500 4.31364427187500 6.01185901875000 
 S -2.55194513437500 1.26154327187500 3.35512101875000 
 S -2.68071413437500 4.58366327187500 3.28579201875000 
 S -3.13135313437500 1.67468627187500 7.47619301875000 
 S -3.27179113437500 4.83772227187500 7.24513801875000 
