16

 C -2.94831097500000 1.40308464062500 5.52526398437500 
 C -3.10167597500000 5.27414464062500 5.17110498437500 
 C -4.16665697500000 0.971156640625000 4.86133298437500 
 C -4.32430097500000 4.68645064062500 4.60431598437500 
 N -1.82427997500000 1.32111364062500 4.80242098437500 
 N -2.07990197500000 5.35536964062500 4.33314298437500 
 N -3.94401897500000 0.676494640625000 3.60938098437500 
 N -4.28686297500000 4.54193464062500 3.31088498437500 
 N -4.90732897500000 1.45055864062500 7.19976398437500 
 N -4.73658297500000 4.86102364062500 7.13810098437500 
 S -5.61882597500000 0.871281640625000 5.83315098437500 
 S -5.67765797500000 4.79903964062500 5.74840098437500 
 S -2.28768397500000 0.984263640625000 3.29082998437500 
 S -2.73157397500000 4.93965864062500 2.85653298437500 
 S -3.23480597500000 1.59000864062500 7.23229098437500 
 S -3.15480497500000 5.37063064062500 6.84188498437500 
