16

 C -3.24933295000000 0.866282556250003 5.41395665312500 
 C -3.22036395000000 4.95132155625000 5.67464965312500 
 C -4.42325295000000 0.549106556250003 4.66974265312500 
 C -4.47111995000000 4.53373655625000 5.10377365312500 
 N -2.17057595000000 1.31307055625000 4.71987065312500 
 N -2.20151595000000 5.14005255625000 4.83255565312500 
 N -4.29771095000000 0.826450556250004 3.35716665312500 
 N -4.36670695000000 4.40350155625000 3.80410365312500 
 N -5.11044595000000 0.630464556250003 7.23350965312500 
 N -4.97401195000000 4.90856155625000 7.58401765312500 
 S -5.83517595000000 0.253201556250004 5.82644565312500 
 S -5.76255195000000 4.21766755625000 6.28148865312500 
 S -2.72116795000000 1.31348755625000 3.15927465312500 
 S -2.80840395000000 4.74753455625000 3.34384265312500 
 S -3.46408495000000 0.785246556250003 7.19248065312500 
 S -3.30565095000000 5.02266755625000 7.42093965312500 
