16

 C -3.14541944062500 1.26886402500000 5.42331564687500 
 C -3.26258144062500 5.38413802500000 5.58274764687500 
 C -4.30188644062500 0.609047025000000 4.84995264687500 
 C -4.39806544062500 4.75475102500000 4.97598764687500 
 N -2.09925044062500 1.25041202500000 4.56470664687500 
 N -2.20272944062500 5.58654002500000 4.80629364687500 
 N -4.24260944062500 0.133851025000000 3.59228664687500 
 N -4.18338044062500 4.34580302500000 3.75175564687500 
 N -5.12012244062500 1.42367902500000 7.19823264687500 
 N -4.94489044062500 5.20991702500000 7.53997264687500 
 S -5.69017044062500 0.512710025000000 5.88284164687500 
 S -5.70741344062500 4.64789402500000 6.15893264687500 
 S -2.63357544062500 0.417764025000000 3.22179464687500 
 S -2.58296344062500 4.91354202500000 3.38346464687500 
 S -3.52511744062500 2.00369202500000 6.98150264687500 
 S -3.39928444062500 5.66300902500000 7.26863664687500 
