16

 C -3.10175862187500 1.54841386250000 5.68257412187500 
 C -3.13416962187500 5.22243086250000 5.65803212187500 
 C -4.34649362187500 1.25248786250000 5.08529012187500 
 C -4.32633762187500 4.84463286250000 4.94298312187500 
 N -2.12576862187500 1.75601986250000 4.83236512187500 
 N -2.08399162187500 5.38683486250000 4.87130712187500 
 N -4.37675262187500 1.43294386250000 3.77649112187500 
 N -4.21652362187500 4.93170386250000 3.59863912187500 
 N -4.78248762187500 1.63617986250000 7.61142412187500 
 N -4.86375162187500 4.97127886250000 7.49385212187500 
 S -5.66889562187500 1.29332386250000 6.17687412187500 
 S -5.63918262187500 4.59325886250000 6.05839312187500 
 S -2.77611962187500 1.73280686250000 3.31635612187500 
 S -2.61730162187500 5.27382586250000 3.33002912187500 
 S -3.16396262187500 1.84839686250000 7.32761512187500 
 S -3.19448962187500 5.29961586250000 7.39882812187500 
