16

 C -3.17942459687500 1.44387587187500 5.40903275937500 
 C -3.26977859687500 5.15899387187500 5.39957075937500 
 C -4.26679259687500 0.764047871874998 4.90882275937500 
 C -4.53187159687500 4.70013787187500 4.86486375937500 
 N -2.19282659687500 1.57184287187500 4.54522675937500 
 N -2.34066459687500 5.24649987187500 4.44844775937500 
 N -4.19063959687500 0.390609871874998 3.64767775937500 
 N -4.49505859687500 4.32608587187500 3.59322775937500 
 N -4.92327459687500 1.38418687187500 7.28511375937500 
 N -4.92204859687500 5.10085487187500 7.36368075937500 
 S -5.56714859687500 0.480272871874997 6.03313575937500 
 S -5.83690659687500 4.75937687187500 5.98680875937500 
 S -2.68942059687500 0.794060871874998 3.17699175937500 
 S -2.94205059687500 4.56515387187500 3.08485675937500 
 S -3.36034459687500 1.93200687187500 7.11857675937500 
 S -3.32952859687500 5.55231787187500 7.10797475937500 
