16

 C -3.29641136562500 1.06214827812500 5.41589073125000 
 C -3.25541436562500 5.17172827812500 5.34978073125000 
 C -4.54492636562500 0.768124278125000 4.69956973125000 
 C -4.33126536562500 4.54361127812500 4.66230073125000 
 N -2.16531836562500 1.12086327812500 4.70750673125000 
 N -2.30108436562500 5.60327027812500 4.54156573125000 
 N -4.36944236562500 0.650821278124999 3.38882873125000 
 N -4.27276536562500 4.52887727812500 3.31538573125000 
 N -5.16756736562500 0.793258278124999 7.27382973125000 
 N -5.09779336562500 4.66282027812500 7.14842073125000 
 S -5.92786936562500 0.454177278124999 5.79216373125000 
 S -5.55453636562500 3.90788327812500 5.70981273125000 
 S -2.69953836562500 0.924846278124999 3.15525173125000 
 S -2.77317836562500 5.23123927812500 3.03379973125000 
 S -3.53298436562500 1.04619127812500 7.16632273125000 
 S -3.61964036562500 5.36140227812500 7.05157173125000 
