16

 C -3.00227356250000 1.54012030000000 5.67957253437500 
 C -3.11203756250000 5.19435230000000 5.77497853437500 
 C -4.11433356250000 0.894939300000000 5.04454653437500 
 C -4.33850556250000 4.85016330000000 5.10294553437500 
 N -1.95256056250000 1.75237530000000 4.89903953437500 
 N -2.03757756250000 5.29604430000000 4.98926153437500 
 N -3.96348356250000 0.688436300000000 3.71871153437500 
 N -4.20665756250000 4.87093830000000 3.75453953437500 
 N -4.90535156250000 1.43551430000000 7.53036253437500 
 N -4.89151556250000 5.18341730000000 7.63445453437500 
 S -5.56583456250000 0.766648300000000 6.19392853437500 
 S -5.68076356250000 4.81173130000000 6.17763553437500 
 S -2.41373456250000 1.21623230000000 3.41084353437500 
 S -2.61692356250000 5.08152630000000 3.45297553437500 
 S -3.35326356250000 1.97583430000000 7.36227353437500 
 S -3.27467156250000 5.59050930000000 7.47071653437500 
