16

 C -2.81582132500000 1.46766428437500 5.83535573437500 
 C -3.38509932500000 5.32025428437500 5.60119673437500 
 C -4.12914332500000 1.36376628437500 5.21585973437500 
 C -4.63520632500000 4.96322728437500 4.95388873437500 
 N -1.82891232500000 1.39903128437500 4.94592073437500 
 N -2.34628132500000 5.49090228437500 4.82291073437500 
 N -4.06378732500000 1.31305528437500 3.89288273437500 
 N -4.44755132500000 4.76851728437500 3.66108073437500 
 N -4.59839632500000 1.33435828437500 7.74483273437500 
 N -5.07040332500000 4.99691328437500 7.49943373437500 
 S -5.42852232500000 1.31477228437500 6.28707573437500 
 S -5.93913132500000 4.73686228437500 6.08082973437500 
 S -2.44615932500000 1.39302128437500 3.37968573437500 
 S -2.87434132500000 5.03374228437500 3.29126573437500 
 S -2.92048232500000 1.53428628437500 7.59524273437500 
 S -3.45116332500000 5.18498828437500 7.30891273437500 
