16

 C -3.31683632812500 1.15829211875000 5.48583262187500 
 C -3.24134632812500 5.00185211875000 5.31784262187500 
 C -4.49587332812500 0.614815118750003 4.81923462187500 
 C -4.41331632812500 4.62432311875000 4.64191862187500 
 N -2.30792532812500 1.40099111875000 4.64557462187500 
 N -2.12667332812500 4.97328211875000 4.59494362187500 
 N -4.36700732812500 0.520739118750003 3.50734662187500 
 N -4.14850132812500 4.33504011875000 3.32044562187500 
 N -5.45454032812500 1.16380911875000 7.10753462187500 
 N -4.94933932812500 5.22918711875000 7.12505262187500 
 S -5.87129132812500 0.301857118750004 5.71490962187500 
 S -5.83840932812500 4.81783711875000 5.73814862187500 
 S -2.81086132812500 0.926367118750004 3.12933862187500 
 S -2.47476832812500 4.54915911875000 3.06017862187500 
 S -3.76861032812500 1.55436911875000 7.20866262187500 
 S -3.34990332812500 5.56095711875000 6.96319562187500 
