16

 C -3.41716955625000 1.62085555000000 5.45989703125000 
 C -3.08281355625000 5.67371155000000 5.60166403125000 
 C -4.51481155625000 0.992393550000001 4.75672403125000 
 C -4.20590355625000 4.94419555000000 4.99325903125000 
 N -2.28911455625000 1.75636155000000 4.67836303125000 
 N -2.14268855625000 6.06272655000000 4.76303203125000 
 N -4.23486555625000 0.518661550000001 3.52886303125000 
 N -4.06268255625000 4.74745355000000 3.71384903125000 
 N -5.17145355625000 1.15824355000000 7.29961403125000 
 N -4.80443155625000 5.12640055000000 7.47558803125000 
 S -5.88139455625000 0.770153550000001 5.84136103125000 
 S -5.54492755625000 4.56613755000000 6.06436803125000 
 S -2.69699055625000 1.00889255000000 3.27751203125000 
 S -2.61335755625000 5.54599855000000 3.25376903125000 
 S -3.57717555625000 1.63643955000000 7.15031703125000 
 S -3.26377755625000 5.67316755000000 7.35288303125000 
