16

 C -3.18093375625000 1.28245010000000 5.36897419375000 
 C -2.84044675625000 5.18491810000000 5.79199719375000 
 C -4.36685275625000 0.921588100000001 4.68127419375000 
 C -4.07987675625000 4.80190310000000 5.15842519375000 
 N -2.13906275625000 1.60490210000000 4.62671919375000 
 N -1.74801875625000 5.27902110000000 5.00521519375000 
 N -4.24329275625000 0.964652100000001 3.37449619375000 
 N -3.91747475625000 4.61010110000000 3.85303319375000 
 N -4.83649175625000 0.835036100000001 7.20765619375000 
 N -4.71850875625000 5.05557310000000 7.59108819375000 
 S -5.65648475625000 0.414235100000001 5.75920319375000 
 S -5.35323175625000 4.31750410000000 6.24064619375000 
 S -2.70283975625000 1.49183510000000 3.11898119375000 
 S -2.35156775625000 4.94120010000000 3.49413719375000 
 S -3.21843375625000 1.21349510000000 7.11134519375000 
 S -3.11965575625000 5.38639610000000 7.49026019375000 
