16

 C -3.01757685625000 1.22796981875000 5.31677038750000 
 C -2.86603785625000 5.11939981875000 5.61466638750000 
 C -4.14522385625000 0.744728818750005 4.66158338750000 
 C -4.13379985625000 4.63365681875000 5.13892438750000 
 N -1.94960885625000 1.50176581875000 4.60472038750000 
 N -1.94202085625000 5.34334181875001 4.68395338750000 
 N -3.92681285625000 0.602152818750005 3.35713538750000 
 N -4.14301585625000 4.41432281875000 3.82910338750000 
 N -4.69361085625000 0.738873818750005 7.10957338750000 
 N -4.40645885625000 4.81883081875000 7.76266738750000 
 S -5.45716385625000 0.299874818750005 5.70760338750000 
 S -5.31926385625000 4.40498781875000 6.42291138750000 
 S -2.39569285625000 1.11434281875000 3.02096038750000 
 S -2.67337085625000 4.79424481875001 3.22996838750000 
 S -3.16354485625000 1.40941881875001 7.02946138750000 
 S -2.82682285625000 5.30295581875001 7.44077838750000 
