16

 C -3.03397347187500 1.26715340000000 5.63466382500000 
 C -3.11404247187500 5.05073440000000 5.51778882500000 
 C -4.26370847187500 0.799034399999999 5.01750682500000 
 C -4.26190347187500 4.43051940000000 4.90473782500000 
 N -2.00064347187500 1.30618940000000 4.79631682500000 
 N -2.06115147187500 5.16064440000000 4.71893782500000 
 N -4.13541347187500 0.379825399999999 3.76834682500000 
 N -4.00798547187500 4.01839440000000 3.66729582500000 
 N -4.80706247187500 1.15721540000000 7.46467782500000 
 N -4.85342247187500 4.89203440000000 7.42390782500000 
 S -5.57090547187500 0.690078399999999 6.08298082500000 
 S -5.59966447187500 4.32378540000000 6.05047082500000 
 S -2.55675547187500 0.723686399999999 3.39490282500000 
 S -2.44497447187500 4.49058940000000 3.27855482500000 
 S -3.22913447187500 1.63457940000000 7.35253082500000 
 S -3.31047547187500 5.34876440000000 7.19114882500000 
