16

 C -3.12735295937500 1.51282254375000 5.61251961875000 
 C -2.92078295937500 5.34535654375000 5.40662961875000 
 C -4.37249495937500 0.983990543749997 5.05935761875000 
 C -4.15436995937500 4.88536854375000 4.84267461875000 
 N -2.17230495937500 1.63182254375000 4.69898561875000 
 N -1.93577995937500 5.59995454375000 4.53477061875000 
 N -4.30813595937500 0.595758543749996 3.79364461875000 
 N -4.12598395937500 4.76220354375000 3.51270661875000 
 N -4.60367695937500 1.16072354375000 7.66071461875000 
 N -4.54715595937500 4.90735954375000 7.31886561875000 
 S -5.57504095937500 0.784098543749996 6.30860061875000 
 S -5.45929795937500 4.65246654375000 5.96378361875000 
 S -2.80684495937500 1.12644854375000 3.21483361875000 
 S -2.65382295937500 5.23440154375000 2.98857161875000 
 S -3.03994395937500 1.61233754375000 7.28122061875000 
 S -2.98229195937500 5.40539154375000 7.22479261875000 
