16

 C -3.28539567812500 1.32216433125000 5.36689807187500 
 C -3.23251967812500 5.43755433125000 5.61764107187500 
 C -4.42289467812500 0.631721331250003 4.82235307187500 
 C -4.39533567812500 4.79131033125000 5.02172507187500 
 N -2.18123767812500 1.29208733125000 4.62035907187500 
 N -2.16945767812500 5.53578133125000 4.84227407187500 
 N -4.18900567812500 0.145877331250003 3.61242507187500 
 N -4.20011367812500 4.46206633125000 3.78167907187500 
 N -5.04873167812500 1.58646733125000 7.10600807187500 
 N -4.99679267812500 5.19556533125000 7.46867407187500 
 S -5.71351567812500 0.536571331250003 6.00662807187500 
 S -5.73452567812500 4.49248233125000 6.13990007187500 
 S -2.60120567812500 0.522009331250003 3.19622107187500 
 S -2.67314067812500 4.82203833125000 3.37561407187500 
 S -3.49406667812500 2.02102233125000 6.89225307187500 
 S -3.38880267812500 5.71738833125000 7.36315707187500 
