16

 C -3.29988128437500 1.12672221250000 5.99404918437500 
 C -2.91104028437500 4.71308121250000 5.28101918437500 
 C -4.46016828437500 0.616277212499999 5.19959618437500 
 C -4.22714728437500 4.43443621250000 4.73214518437500 
 N -2.28156428437500 1.47269321250000 5.18685118437500 
 N -1.90337028437500 4.85088221250000 4.38849518437500 
 N -4.24433928437500 0.699895212499999 3.86785318437500 
 N -4.22065828437500 4.47878521250000 3.40495618437500 
 N -4.96849528437500 0.442686212499999 7.70273318437500 
 N -4.70402228437500 4.55192521250000 7.22528018437500 
 S -5.79168828437500 0.328670212499999 6.25001418437500 
 S -5.57297628437500 4.53015521250000 5.84195018437500 
 S -2.67614828437500 1.30116021250000 3.60336918437500 
 S -2.68604728437500 4.72887321250000 2.89760018437500 
 S -3.51546928437500 1.31861921250000 7.68307818437500 
 S -3.05171828437500 4.85149621250000 7.07061818437500 
