16

 C -3.06517325000000 1.62520089687500 5.66866245625000 
 C -3.04941825000000 5.33862389687500 5.72402245625000 
 C -4.16030425000000 0.956575896874998 5.06395745625000 
 C -4.32455025000000 4.98281789687500 5.13646645625000 
 N -1.99870125000000 1.81847789687500 4.94380145625000 
 N -2.00804025000000 5.41266789687500 4.88969045625000 
 N -3.87427425000000 0.520819896874998 3.84107445625000 
 N -4.23786925000000 4.66526989687500 3.85091745625000 
 N -4.82470925000000 1.41612789687500 7.55548945625000 
 N -4.90374125000000 5.24878989687500 7.54275745625000 
 S -5.52398125000000 0.779838896874998 6.13905745625000 
 S -5.67968425000000 4.85470589687500 6.15586245625000 
 S -2.36881325000000 1.19294689687500 3.38533145625000 
 S -2.65861225000000 5.00815889687500 3.37193645625000 
 S -3.29352425000000 2.04906889687500 7.35257145625000 
 S -3.30601025000000 5.58477189687500 7.42770445625000 
