16

 C -3.00749969062500 1.59380295625000 5.43725394062500 
 C -3.14595469062500 5.14466895625000 5.39957894062500 
 C -4.13394769062500 1.10689695625000 4.71239994062500 
 C -4.33469869062500 4.49580895625000 4.88357194062500 
 N -1.88401769062500 1.54106595625000 4.72766294062500 
 N -2.17163569062500 5.20887495625000 4.49268894062500 
 N -3.96816469062500 0.801438956249998 3.42876694062500 
 N -4.30707769062500 4.11985495625000 3.59339994062500 
 N -4.99878469062500 1.29898895625000 7.18648794062500 
 N -4.83840069062500 4.97227095625000 7.35258994062500 
 S -5.61451269062500 0.969307956249998 5.68670594062500 
 S -5.62387969062500 4.37011095625000 6.02805594062500 
 S -2.32825769062500 1.12973795625000 3.12598894062500 
 S -2.82451069062500 4.63390095625000 3.01919594062500 
 S -3.41814169062500 1.76727395625000 7.15183894062500 
 S -3.25285069062500 5.44401895625000 7.17696194062500 
