16

 C -3.06837957812500 1.45954507500000 5.54995733125000 
 C -3.16168457812500 5.03709807500000 5.22067233125000 
 C -4.32392457812500 0.934451074999999 4.98067633125000 
 C -4.38623257812500 4.55408307500000 4.57983533125000 
 N -2.05008657812500 1.47059307500000 4.68001033125000 
 N -2.10924857812500 5.04158407500000 4.39938733125000 
 N -4.15616457812500 0.546849074999999 3.72192133125000 
 N -4.17891657812500 3.97226507500000 3.38478433125000 
 N -4.72775757812500 1.28122907500000 7.62984133125000 
 N -4.92752157812500 5.12557607500000 7.11312733125000 
 S -5.56513757812500 0.818219074999999 6.24410633125000 
 S -5.63580157812500 4.32815707500000 5.86520333125000 
 S -2.57833457812500 0.894908074999999 3.22828633125000 
 S -2.57715557812500 4.26406207500000 2.99493433125000 
 S -3.19538157812500 1.80746707500000 7.20335033125000 
 S -3.29474257812500 5.42552907500000 6.89292133125000 
