16

 C -3.09298868437500 1.38484265312500 5.47455260937500 
 C -2.89318368437500 5.17966165312500 5.86776760937500 
 C -4.27196268437500 0.871944653125001 4.80784560937500 
 C -4.05269068437500 4.68428465312500 5.13869360937500 
 N -2.08907168437500 1.73722165312500 4.65328760937500 
 N -1.84461668437500 5.43336265312500 5.10696060937500 
 N -4.23850168437500 0.899414653125001 3.44769960937500 
 N -3.89907468437500 4.63515965312500 3.83247760937500 
 N -4.88860268437500 0.760740653125001 7.38258560937500 
 N -4.74176668437500 4.92571765312500 7.60385860937500 
 S -5.65546068437500 0.630995653125002 5.88514760937500 
 S -5.44815668437500 4.54864265312500 6.16394160937500 
 S -2.73004168437500 1.47166665312500 3.09052060937500 
 S -2.31490368437500 5.05564965312500 3.51639860937500 
 S -3.32359968437500 1.24675265312500 7.25348960937500 
 S -3.16274768437500 5.42126565312500 7.63833160937500 
