16

 C -3.24429547812500 1.41504011875000 5.61920684375000 
 C -3.04593447812500 5.19880211875000 5.47789684375000 
 C -4.45348347812500 1.17844111875000 4.83377484375000 
 C -4.28337847812500 4.71163511875000 4.84587584375000 
 N -2.17029947812500 1.71124811875000 4.89899484375000 
 N -2.03484947812500 5.34027511875000 4.65595584375000 
 N -4.23331147812500 1.28469111875000 3.52254184375000 
 N -4.20408847812500 4.75987411875000 3.51331084375000 
 N -5.05865947812500 1.07708411875000 7.41412884375000 
 N -4.80409647812500 5.27353811875000 7.26805784375000 
 S -5.74821447812500 0.871833118750000 5.90828384375000 
 S -5.68057447812500 4.64139611875000 6.00743684375000 
 S -2.65117247812500 1.77778011875000 3.30473284375000 
 S -2.58402747812500 5.09802011875000 3.13417884375000 
 S -3.42252747812500 1.14900011875000 7.34143884375000 
 S -3.16244247812500 5.47034511875000 7.18481184375000 
