16

 C -2.90569164687500 1.91771274062500 5.56027117812500 
 C -3.19396764687500 5.57928374062500 5.28201617812500 
 C -4.17731964687500 1.66304274062500 4.91291617812500 
 C -4.33390464687500 4.93690474062500 4.68243117812500 
 N -1.82250064687500 2.06217074062500 4.76481917812500 
 N -2.25024764687500 5.89066274062500 4.38856817812500 
 N -4.10459264687500 1.60881274062500 3.58609817812500 
 N -4.21052464687500 4.60041574062500 3.40540617812500 
 N -4.63448764687500 1.56325274062500 7.55064517812500 
 N -4.90094564687500 5.00621374062500 7.19953117812500 
 S -5.47174464687500 1.42111674062500 6.13022417812500 
 S -5.65776164687500 4.54217874062500 5.75030117812500 
 S -2.51490764687500 1.86551074062500 3.22787417812500 
 S -2.75065464687500 5.26817374062500 2.93820317812500 
 S -3.06727064687500 2.13427374062500 7.32435917812500 
 S -3.31733464687500 5.43031874062500 7.06085517812500 
