16

 C -3.09987865312500 1.52173914375000 5.58197550625000 
 C -2.96645665312500 5.34288914375000 5.45000450625000 
 C -4.34580665312500 1.00331514375000 5.07866350625000 
 C -4.18788865312500 4.89240414375000 4.82343650625000 
 N -2.17783065312500 1.63044514375000 4.67635350625000 
 N -1.98466565312500 5.57390814375000 4.55384850625000 
 N -4.29975665312500 0.635888143750002 3.82311950625000 
 N -4.11776565312500 4.74273014375000 3.50190150625000 
 N -4.59134665312500 1.16904214375000 7.63739250625000 
 N -4.54214065312500 4.88413614375000 7.30309950625000 
 S -5.56544265312500 0.809504143750003 6.28901350625000 
 S -5.45440565312500 4.64949614375000 5.97896350625000 
 S -2.82054165312500 1.13721814375000 3.21145150625000 
 S -2.61433065312500 5.23530014375000 2.99694050625000 
 S -3.03694665312500 1.60383114375000 7.34519550625000 
 S -2.98040765312500 5.41379714375000 7.18769150625000 
