16

 C -3.29803913750000 1.48215020000000 5.50709289375000 
 C -3.25582613750000 5.00523320000000 5.15677789375000 
 C -4.55089213750000 0.973200199999999 4.94648789375000 
 C -4.32090013750000 4.16220020000000 4.61867989375000 
 N -2.30427413750000 1.53762820000000 4.63126989375000 
 N -2.25510513750000 5.21792120000000 4.29473889375000 
 N -4.46167113750000 0.762877199999999 3.62598389375000 
 N -4.19832313750000 3.91104820000000 3.30315789375000 
 N -4.99847313750000 1.46483620000000 7.47395089375000 
 N -5.03328213750000 4.83749720000000 7.03402189375000 
 S -5.78080613750000 0.896727199999999 6.17115789375000 
 S -5.63552813750000 4.02916120000000 5.74808989375000 
 S -2.89621413750000 1.07241220000000 3.15188189375000 
 S -2.77130413750000 4.66596020000000 2.81829689375000 
 S -3.44603413750000 1.72456420000000 7.23338989375000 
 S -3.55267213750000 5.57217620000000 6.82993389375000 
