16

 C -3.10072141875000 1.08527480625000 5.42111726250000 
 C -3.07107741875000 4.71658380625000 5.48884726250000 
 C -4.33678841875000 0.597716806250002 4.78882026250000 
 C -4.40119941875000 4.73293380625000 4.90499926250000 
 N -2.12548141875000 1.42815880625000 4.58834426250000 
 N -2.12519741875000 4.52030880625000 4.59005726250000 
 N -4.30986041875000 0.509274806250002 3.44893326250000 
 N -4.47186641875000 4.61455180625000 3.60849126250000 
 N -4.82262641875000 0.580392806250002 7.28994326250000 
 N -4.86452141875000 4.96460280625000 7.40822926250000 
 S -5.63651941875000 0.211804806250002 5.88585826250000 
 S -5.75860041875000 4.83397980625000 6.02353726250000 
 S -2.74823941875000 1.09300480625000 3.07852026250000 
 S -2.83126441875000 4.42051880625000 3.11616126250000 
 S -3.23963741875000 0.952741806250002 7.18099326250000 
 S -3.16545241875000 4.84819280625000 7.31057626250000 
