16

 C -2.83827025625000 1.67633418750000 5.71849042812500 
 C -3.03136325625000 5.26765418750000 5.69536142812500 
 C -4.14297725625000 1.63644818750000 5.09788342812500 
 C -4.34216125625000 4.98024618750000 5.15932942812500 
 N -1.82438825625000 1.70862418750000 4.84221142812500 
 N -2.07844325625000 5.32438418750000 4.75830242812500 
 N -4.17801825625000 1.54916518750000 3.74719142812500 
 N -4.40678725625000 4.74623118750000 3.85837742812500 
 N -4.62667625625000 1.64872618750000 7.62783142812500 
 N -4.83546425625000 5.26287418750000 7.60109142812500 
 S -5.49729725625000 1.41671818750000 6.20648642812500 
 S -5.66140425625000 4.76011718750000 6.28029642812500 
 S -2.56439225625000 1.79705918750000 3.31762942812500 
 S -2.85261325625000 5.01147318750000 3.32576842812500 
 S -2.97158525625000 1.85464218750000 7.49061742812500 
 S -3.25977825625000 5.59728018750000 7.39477842812500 
