16

 C -2.77528723750000 1.27433148125000 5.44801660000000 
 C -2.99323823750000 5.15828748125000 5.69150560000000 
 C -4.06561023750000 1.06610248125000 4.87733760000000 
 C -4.13933423750000 4.61097648125000 4.99544560000000 
 N -1.83259723750000 1.45030248125000 4.48948260000000 
 N -1.96800023750000 5.36450848125000 4.85238860000000 
 N -4.11662523750000 0.973101481250001 3.54204560000000 
 N -4.03768823750000 4.47218848125000 3.69146560000000 
 N -4.55321323750000 1.28796248125000 7.38463160000000 
 N -4.88473623750000 4.90837348125000 7.45056560000000 
 S -5.37796723750000 1.01574848125000 6.00556660000000 
 S -5.46951223750000 4.29077948125000 6.01801860000000 
 S -2.51937523750000 1.28088148125000 2.95633860000000 
 S -2.51268023750000 5.00816648125000 3.31257460000000 
 S -2.93777223750000 1.59447248125000 7.17489760000000 
 S -3.30117323750000 5.40636748125000 7.46612660000000 
