16

 C -3.16143572187500 1.60819731250000 5.55966390625000 
 C -3.18086572187500 5.00187331250000 5.51409990625000 
 C -4.48799172187500 1.37316431250000 5.01182890625000 
 C -4.39245972187500 4.61450531250000 4.86463590625000 
 N -2.16266372187500 1.77467831250000 4.67293590625000 
 N -2.15744272187500 5.25809031250000 4.68753090625000 
 N -4.45924872187500 1.31994231250000 3.65224790625000 
 N -4.29044072187500 4.53112431250000 3.54194390625000 
 N -4.68887472187500 1.62402131250000 7.65791390625000 
 N -4.90654872187500 4.61169331250000 7.39444290625000 
 S -5.70188672187500 1.46683731250000 6.34782090625000 
 S -5.69887372187500 4.50735531250000 5.93163090625000 
 S -2.93659972187500 1.56865331250000 3.16804090625000 
 S -2.79606272187500 5.00139631250000 3.18994390625000 
 S -3.06400872187500 1.65699331250000 7.34151690625000 
 S -3.22958772187500 4.84147531250000 7.25984890625000 
