16

 C -3.04460831250000 1.33761816250000 5.53474101562500 
 C -3.40381331250000 5.06119416250000 5.47179301562500 
 C -4.34520731250000 0.994297162499999 4.96441101562500 
 C -4.58496831250000 4.52959216250000 4.78295901562500 
 N -2.06317431250000 1.32448616250000 4.61368501562500 
 N -2.40223631250000 5.42008016250000 4.63672401562500 
 N -4.40396031250000 0.750820162499998 3.64725701562500 
 N -4.50764131250000 4.37755116250000 3.47391901562500 
 N -4.85490531250000 1.15779316250000 7.37141501562500 
 N -5.00381931250000 4.57980216250000 7.40923701562500 
 S -5.73770131250000 0.915650162499999 6.02291201562500 
 S -5.87246031250000 4.15936916250000 5.93306601562500 
 S -2.85284831250000 1.09926616250000 3.08297701562500 
 S -2.96152331250000 5.00399216250000 3.10300401562500 
 S -3.29721031250000 1.61605116250000 7.26159101562500 
 S -3.48435231250000 5.19024416250000 7.17258101562500 
