16

 C -3.00169345000000 1.82054694375000 5.76865135937500 
 C -3.16743045000000 5.38257294375000 5.65544735937500 
 C -4.24560945000000 1.54190094375000 5.07849335937500 
 C -4.38913945000000 4.94300194375000 5.07104435937500 
 N -1.97439945000000 1.98047194375000 4.94024735937500 
 N -2.13163245000000 5.51445694375000 4.82330235937500 
 N -4.12340945000000 1.38790794375000 3.76693435937500 
 N -4.32205645000000 4.78454794375001 3.75739735937500 
 N -4.76412845000000 1.44922294375001 7.73192935937500 
 N -4.79275945000000 5.16119994375001 7.63712235937500 
 S -5.63146845000000 1.50623994375001 6.30107035937500 
 S -5.70799945000000 4.85455694375000 6.29888435937500 
 S -2.57639645000000 1.79688494375000 3.39514335937500 
 S -2.73346645000000 5.11179794375000 3.30889335937500 
 S -3.08183945000000 1.73938394375000 7.52265235937500 
 S -3.17981645000000 5.39957594375000 7.32346835937500 
