16

 C -3.17769981250000 1.23801174375000 5.61914868750000 
 C -3.11733081250000 4.97755974375000 5.56890568750000 
 C -4.42246381250000 0.750915743750002 5.08737368750000 
 C -4.31848881250000 4.42566774375000 5.01940968750000 
 N -2.16333481250000 1.33950974375000 4.76351268750000 
 N -2.04196981250000 4.89383574375000 4.75781268750000 
 N -4.37598981250000 0.500277743750002 3.78469368750000 
 N -4.19604281250000 4.21200074375000 3.71728568750000 
 N -4.85725981250000 1.23757674375000 7.64668768750000 
 N -4.85525481250000 4.89366674375000 7.49203468750000 
 S -5.68149881250000 0.863151743750002 6.29372168750000 
 S -5.71257781250000 4.33158074375000 6.16866068750000 
 S -2.83002981250000 0.735113743750002 3.32441968750000 
 S -2.59144581250000 4.40491874375000 3.26696768750000 
 S -3.22399981250000 1.67320874375000 7.31268468750000 
 S -3.24990381250000 5.15603974375000 7.29037468750000 
