16

 C -3.24675530625000 1.55669427812500 5.33270347500000 
 C -3.01272230625000 5.08479927812500 5.44191447500000 
 C -4.41055430625000 1.02906627812500 4.64120347500000 
 C -4.28435030625000 4.95086927812500 4.77108047500000 
 N -2.23882930625000 1.72113127812500 4.49553547500000 
 N -1.99577630625000 5.11377927812500 4.58556847500000 
 N -4.30002130625000 0.897346278125002 3.31885747500000 
 N -4.24531530625000 5.06519227812500 3.42189847500000 
 N -5.03253830625000 1.20932827812500 7.17351747500000 
 N -4.86086130625000 4.91136727812500 7.23967447500000 
 S -5.72464030625000 0.807527278125002 5.69443547500000 
 S -5.70711030625000 4.79849227812500 5.78941647500000 
 S -2.78576430625000 1.46021727812500 3.00267447500000 
 S -2.65634630625000 5.13631227812500 3.03841747500000 
 S -3.35879530625000 1.58799027812500 7.10701747500000 
 S -3.17279830625000 4.83587127812500 7.16016847500000 
