16

 C -3.05306710625000 1.29878268437500 5.43906760312500 
 C -3.08714210625000 5.07102668437500 5.65022960312500 
 C -4.18648210625000 0.717508684374998 4.72387160312500 
 C -4.15011510625000 4.49326968437500 4.91090660312500 
 N -2.13814310625000 1.72135768437500 4.62482660312500 
 N -1.99953910625000 5.26983868437500 4.88744160312500 
 N -3.98697610625000 0.688089684374997 3.39100160312500 
 N -3.88226510625000 4.25793668437500 3.66725560312500 
 N -4.76555210625000 0.966262684374998 7.35209560312500 
 N -5.07443010625000 5.06593968437500 7.20475760312500 
 S -5.48842110625000 0.369052684374997 5.98351160312500 
 S -5.63981910625000 4.35327668437500 5.77348960312500 
 S -2.53115610625000 1.36311368437500 3.09259160312500 
 S -2.39449510625000 4.82200168437500 3.35721460312500 
 S -3.27462710625000 1.64620168437500 7.15443060312500 
 S -3.54866210625000 5.56468568437500 7.28915060312500 
