16

 C -2.72204268750000 1.64256758750000 5.36235832812500 
 C -3.38074068750000 5.05627158750000 5.60184232812500 
 C -3.75864168750000 0.843674587500001 4.78408232812500 
 C -4.49986768750000 4.46642258750000 4.93345932812500 
 N -1.77356468750000 2.12554358750000 4.51477332812500 
 N -2.43178368750000 5.48011858750000 4.77990732812500 
 N -3.70499368750000 0.776975587500001 3.42635132812500 
 N -4.36866468750000 4.36539558750000 3.59895232812500 
 N -4.34681968750000 1.11728458750000 7.34009632812500 
 N -5.19526868750000 4.54760158750000 7.44413732812500 
 S -5.07449768750000 0.481427587500001 5.98047332812500 
 S -5.84898968750000 3.98190058750000 5.96873032812500 
 S -2.36309568750000 1.64937058750000 3.00606832812500 
 S -2.95304568750000 5.12988258750000 3.17672832812500 
 S -2.98115368750000 1.99971358750000 7.05513432812500 
 S -3.69812368750000 5.21885758750000 7.32107632812500 
