16

 C -3.10195130625000 1.50567926875000 5.29366390625000 
 C -3.20084030625000 5.42387726875000 5.84165190625000 
 C -4.24915630625000 0.855115268750000 4.67541590625000 
 C -4.34680330625000 4.90924126875000 5.18924490625000 
 N -2.06634830625000 1.68723426875000 4.49660090625000 
 N -2.15886930625000 5.58539226875000 4.96963590625000 
 N -4.03354530625000 0.553740268750000 3.39625590625000 
 N -4.20987630625000 4.57373826875000 3.91470090625000 
 N -4.83055230625000 1.44121626875000 7.19678990625000 
 N -5.11346830625000 5.14895226875000 7.54958190625000 
 S -5.63003330625000 0.776522268750000 5.87908490625000 
 S -5.74065530625000 4.62789226875000 6.12934290625000 
 S -2.43677130625000 0.975076268750000 3.09533190625000 
 S -2.64278030625000 5.00746626875000 3.48641590625000 
 S -3.25116730625000 1.89721526875000 6.96100290625000 
 S -3.51264630625000 5.50793726875000 7.58910290625000 
