16

 C -3.09343077812500 1.79896981875000 5.77415187500000 
 C -3.03666577812500 5.24063081875000 5.65880887499999 
 C -4.37044677812500 1.54714281875000 5.11580687500000 
 C -4.31522277812500 4.94892481875000 5.03036387500000 
 N -2.08514477812500 1.77568481875000 4.91954987500000 
 N -2.04857977812500 5.44260881875000 4.80335687500000 
 N -4.33621377812500 1.53451181875000 3.78169187500000 
 N -4.28890577812500 4.97101081875000 3.70933687500000 
 N -4.80024477812500 1.49897781875000 7.67505987500000 
 N -4.84442677812500 4.98906081875000 7.57348887500000 
 S -5.70088177812500 1.32969281875000 6.24375487500000 
 S -5.65955677812500 4.70207081875000 6.14883487500000 
 S -2.69377877812500 1.69366581875000 3.33154987499999 
 S -2.69301777812500 5.27327281875001 3.28439787500000 
 S -3.20954377812500 1.87658581875000 7.50289487500000 
 S -3.21982477812500 5.30530081875000 7.35304587500000 
