16

 C -3.14259970312500 1.67422442812500 5.41628690312500 
 C -3.06488870312500 5.08422442812500 5.59488490312500 
 C -4.39008270312500 1.27146942812500 4.81250990312500 
 C -4.24310470312500 4.50752742812500 4.93827790312500 
 N -2.15234970312500 1.85299342812500 4.55311090312500 
 N -2.03450670312500 5.16310842812500 4.74931690312500 
 N -4.35659970312500 1.28517442812500 3.48496590312500 
 N -4.17865370312500 4.38437942812500 3.59078590312500 
 N -4.97002070312500 1.20560942812500 7.31724690312500 
 N -4.88036470312500 4.67086742812500 7.45961390312500 
 S -5.73930070312500 0.930577428125000 5.83496390312500 
 S -5.63440770312500 4.45112342812500 6.01675990312500 
 S -2.76264970312500 1.56370842812500 3.05804190312500 
 S -2.58866070312500 4.72415142812500 3.22686190312500 
 S -3.37686770312500 1.69345142812500 7.12241090312500 
 S -3.35461170312500 5.32296242812500 7.34203090312500 
