16

 C -3.34622090312500 1.62538485937500 5.45729071250000 
 C -2.96427190312500 5.36445685937500 5.87131971250000 
 C -4.39408490312500 0.851655859375001 4.80660371250000 
 C -4.18657190312500 4.79194685937500 5.34698071250000 
 N -2.27115590312500 2.05646585937500 4.75302971250000 
 N -2.06714190312500 5.60271985937500 4.92999871250000 
 N -4.05630290312500 0.671745859375002 3.50711871250000 
 N -4.22918190312500 4.58038985937500 4.01572571250000 
 N -4.95527890312500 1.09046585937500 7.33400871250000 
 N -4.71151190312500 5.12491985937500 7.83406271250000 
 S -5.68127790312500 0.429753859375002 5.98097471250000 
 S -5.50372890312500 4.60684485937500 6.39491371250000 
 S -2.62819790312500 1.56500485937500 3.22700871250000 
 S -2.76815890312500 5.15507485937500 3.48008471250000 
 S -3.44014690312500 1.65736685937500 7.16562271250000 
 S -3.04594490312500 5.44017485937500 7.67173271250000 
