16

 C -3.37239007500000 1.25314563437500 5.45346676250000 
 C -3.12032507500000 4.94530163437500 5.04040776250000 
 C -4.53667407500000 0.646131634374996 4.79609376250000 
 C -4.30470707500000 4.40293263437500 4.46546676250000 
 N -2.37123307500000 1.65126263437500 4.65492376250000 
 N -2.15648907500000 5.13054363437500 4.15799776250000 
 N -4.42597107500000 0.559139634374995 3.45851876250000 
 N -4.24942307500000 4.24455563437500 3.12194976250000 
 N -5.12004907500000 0.905716634374995 7.30720876250000 
 N -4.95255407500000 4.82172063437500 6.83318776250000 
 S -5.86482207500000 0.402776634374995 5.91649876250000 
 S -5.68885407500000 4.10352363437500 5.47724576250000 
 S -2.85897607500000 1.20712763437500 3.17502376250000 
 S -2.70476207500000 4.77385563437500 2.65357976250000 
 S -3.58573707500000 1.45350563437500 7.18550576250000 
 S -3.35849007500000 5.21322663437500 6.78935576250000 
