16

 C -3.30404915312501 1.55447514062500 5.84889754687500 
 C -3.01812915312501 5.26502914062500 5.82164854687500 
 C -4.51870515312501 1.14023914062500 5.13842354687500 
 C -4.21880715312501 4.75903914062500 5.18193854687500 
 N -2.23719915312501 1.68718314062500 5.07390454687500 
 N -2.01055215312501 5.41782814062500 4.94111854687500 
 N -4.26198715312501 0.924635140625001 3.86817054687500 
 N -4.15121415312501 4.57787914062500 3.88284654687500 
 N -4.96273515312501 1.32036514062500 7.68222854687500 
 N -4.98102015312501 4.95872114062500 7.67263654687500 
 S -5.80965315312501 0.815126140625002 6.33826054687500 
 S -5.55993915312501 4.28020514062500 6.23478554687500 
 S -2.67712115312501 1.25416414062500 3.55159654687500 
 S -2.61037415312501 4.88151514062500 3.42957054687500 
 S -3.41736815312501 1.83269514062500 7.50196354687500 
 S -3.28684415312501 5.43688814062500 7.58993254687500 
