16

 C -3.39544878125000 1.44861702812500 5.47837735000000 
 C -3.03060778125000 5.14942202812500 5.84879935000000 
 C -4.63911378125000 1.14586202812500 4.81090735000000 
 C -4.29844778125000 4.93658602812500 5.30426635000000 
 N -2.31852778125000 1.56972202812500 4.71535035000000 
 N -2.08698778125000 5.21803302812500 4.92145835000000 
 N -4.43637078125000 1.17103902812500 3.46894535000000 
 N -4.36801378125000 4.85264902812500 3.97680535000000 
 N -5.07787978125000 1.18350002812500 7.34252635000000 
 N -4.74538778125000 5.13870102812500 7.82677735000000 
 S -5.90271278125000 0.756784028124997 5.97634035000000 
 S -5.59443778125000 5.01608202812500 6.36772935000000 
 S -2.84497078125000 1.58132202812500 3.18336435000000 
 S -2.85917478125000 5.03323202812500 3.40832935000000 
 S -3.51041178125000 1.67922302812500 7.17272035000000 
 S -3.10379378125000 5.35979302812500 7.62305435000000 
