16

 C -3.79223132187500 1.17812852500000 5.67968560000000 
 C -3.13420332187500 4.98130052500000 5.32914260000000 
 C -4.85456832187500 0.601738525000000 4.90172960000000 
 C -4.35740532187500 4.47194552500000 4.79393860000000 
 N -2.73011632187500 1.42199952500000 4.95991860000000 
 N -2.12892732187500 5.05636952500000 4.47308760000000 
 N -4.65341832187500 0.516913525000000 3.59495760000000 
 N -4.30911532187500 4.18442352500000 3.47942960000000 
 N -5.62340632187500 0.670977525000000 7.39380060000000 
 N -4.74653632187500 5.04124852500000 7.31659460000000 
 S -6.22023732187500 0.197789525000000 5.93241360000000 
 S -5.54636232187500 4.24812652500000 6.06370960000000 
 S -3.10996132187500 1.19277352500000 3.37907560000000 
 S -2.68395432187500 4.56086952500000 3.03835060000000 
 S -4.04132032187500 1.23733352500000 7.37738460000000 
 S -3.16418132187500 5.48400152500000 6.94247660000000 
