16

 C -3.21425053437500 1.23921618437500 5.71091168125000 
 C -3.13790853437500 5.24697918437500 5.57467268125000 
 C -4.47165453437500 1.04576718437500 5.11854468125000 
 C -4.32791553437500 4.74165918437500 4.94860868125000 
 N -2.20290353437500 1.27173818437500 4.85291368125000 
 N -2.20906453437500 5.55641418437500 4.68973768125000 
 N -4.45404653437500 0.744889184375001 3.81699768125000 
 N -4.28788953437500 4.56346818437500 3.64774068125000 
 N -4.94309753437500 1.45312918437500 7.60313568125000 
 N -4.99680753437500 5.05967418437500 7.44198468125000 
 S -5.75641353437500 1.13606118437500 6.22769168125000 
 S -5.71544453437500 4.51871318437500 5.99219768125000 
 S -2.86494153437500 0.940695184375001 3.35627968125000 
 S -2.75166353437500 5.06373118437500 3.20797868125000 
 S -3.31760953437500 1.49228218437500 7.49109168125000 
 S -3.30287153437500 5.43831618437500 7.33162068125000 
