16

 C -3.53663689687500 1.55142130312500 5.34564036250000 
 C -3.28491689687500 4.98783830312500 5.77420436250000 
 C -4.62538889687500 1.01256530312500 4.56594636250000 
 C -4.52116189687500 4.63155430312500 5.11538736250000 
 N -2.50133689687500 1.90880030312500 4.62589036250000 
 N -2.30955689687500 5.09884830312500 4.94913636250000 
 N -4.44901489687500 0.988672303125002 3.24403436250000 
 N -4.51494089687500 4.50960330312500 3.80622236250000 
 N -5.21728989687500 0.896020303125002 7.08716136250000 
 N -5.08741889687500 4.97036830312500 7.63835036250000 
 S -6.00695689687500 0.673027303125001 5.63091436250000 
 S -5.84999089687500 4.61812430312500 6.17569736250000 
 S -2.88017289687500 1.58811830312500 3.07388336250000 
 S -2.85938489687500 4.79116830312500 3.43347236250000 
 S -3.79091289687500 1.68566130312500 7.06411636250000 
 S -3.40861489687500 5.16253030312500 7.51432736250000 
