16

 C -3.14369379687500 1.29702660937501 5.36944055312500 
 C -2.90386279687500 5.13518060937501 5.76919755312500 
 C -4.31677879687500 0.908259609375006 4.66899355312500 
 C -4.07557179687500 4.61053660937501 5.11570055312500 
 N -2.09413979687500 1.53573660937501 4.61455955312500 
 N -1.85175579687500 5.26667360937500 4.97945355312500 
 N -4.25214379687500 0.951670609375006 3.35723855312500 
 N -3.97177279687500 4.52002960937500 3.78146155312500 
 N -4.89829379687500 0.800251609375006 7.16334555312500 
 N -4.63219479687500 4.95369960937501 7.62553055312500 
 S -5.60646279687500 0.335968609375006 5.72942455312500 
 S -5.36510279687500 4.32919060937501 6.27428055312500 
 S -2.68520779687500 1.46713360937501 3.02838755312500 
 S -2.35211479687500 4.88889260937501 3.42727855312500 
 S -3.25840179687500 1.21979460937501 7.05445955312500 
 S -3.01997079687500 5.35997360937501 7.46880855312500 
