16

 C -3.18300618125000 1.48089764687500 5.62481667812500 
 C -3.47648918125000 5.26906864687500 5.44391967812500 
 C -4.38186218125000 0.847108646875001 5.06627967812500 
 C -4.61131518125000 4.58512564687500 4.84876967812500 
 N -2.20354818125000 1.73359064687500 4.75439567812500 
 N -2.47129818125000 5.59801064687500 4.67271667812500 
 N -4.29263818125000 0.648717646875001 3.76553667812500 
 N -4.44440218125000 4.42472864687500 3.56576567812500 
 N -4.90197918125000 0.827904646875001 7.59127467812500 
 N -5.37431018125000 4.98075764687500 7.25560767812500 
 S -5.65343118125000 0.448302646875001 6.21509467812500 
 S -5.89985618125000 4.09964864687500 5.89485667812500 
 S -2.77637418125000 1.23656864687500 3.28011467812500 
 S -2.91951918125000 4.99319764687500 3.17688667812500 
 S -3.41718318125000 1.56022164687500 7.37846367812500 
 S -3.85611418125000 5.63270364687500 7.15464067812500 
