16

 C -3.08786045937500 1.27120829375000 5.68075130937500 
 C -3.11392845937500 5.00372629375000 5.48530330937500 
 C -4.28612845937500 0.762947293750000 5.09162430937500 
 C -4.27139045937500 4.41857529375000 4.89077530937500 
 N -2.06789445937500 1.28207729375000 4.84098530937500 
 N -1.99479645937500 5.04421429375000 4.76359530937500 
 N -4.16304845937500 0.470683293750000 3.80181930937500 
 N -4.04881145937500 4.06725329375000 3.63251530937500 
 N -4.79807345937500 1.07534929375000 7.53959430937500 
 N -4.88482345937500 4.89257729375000 7.32069730937500 
 S -5.62755445937500 0.703741293750000 6.14563630937500 
 S -5.59506145937500 4.23594629375000 6.00005230937500 
 S -2.58182045937500 0.721387293750000 3.35066930937500 
 S -2.48935045937500 4.44119329375000 3.27862130937500 
 S -3.20418545937500 1.64718029375000 7.35013830937500 
 S -3.29966145937500 5.36976629375000 7.14312430937500 
