16

 C -3.16370271875000 1.51859105312500 5.62897982187500 
 C -3.05971171875000 5.22072605312500 5.51435582187500 
 C -4.40713571875000 1.23003205312500 4.85431582187500 
 C -4.33280071875000 4.95200405312500 4.84493482187500 
 N -2.14076171875000 1.93821405312500 4.88134982187500 
 N -2.06996471875000 5.39596905312500 4.67735682187500 
 N -4.20482271875000 1.35850905312500 3.54432282187500 
 N -4.22255371875000 4.70141805312500 3.53380882187500 
 N -5.05877371875000 0.954511053125001 7.30644182187500 
 N -4.81750471875000 5.30307605312500 7.42372982187500 
 S -5.82185771875000 0.787353053125001 5.81788982187500 
 S -5.56538371875000 4.72928905312500 6.00221082187500 
 S -2.60268571875000 1.74088205312500 3.32635082187500 
 S -2.63910271875000 5.02680305312500 3.16079382187500 
 S -3.38873671875000 1.16077705312500 7.29049782187500 
 S -3.11467871875000 5.43351505312500 7.24063682187500 
