16

 C -3.30481642187500 1.31030223437501 5.21900735937500 
 C -3.20962942187500 5.14039323437501 5.34181935937500 
 C -4.54334242187500 0.793480234375007 4.63431335937500 
 C -4.50729242187500 4.71346423437501 4.80444135937500 
 N -2.31806242187500 1.40402423437501 4.34457535937500 
 N -2.23326942187500 5.18596523437501 4.43166035937500 
 N -4.44354742187500 0.456780234375007 3.34241035937500 
 N -4.47400142187500 4.39555823437501 3.47514635937500 
 N -4.94416242187500 0.957174234375007 7.14564235937500 
 N -4.83560142187500 4.78525323437501 7.43610735937500 
 S -5.84629042187500 0.806149234375008 5.80065335937500 
 S -5.79902842187500 4.61412723437501 5.99525235937500 
 S -2.88144842187500 0.745204234375008 2.95052835937500 
 S -2.90703842187500 4.66678123437501 2.99610935937500 
 S -3.40617842187500 1.44292423437501 6.98941435937500 
 S -3.23366742187500 5.35456323437501 7.14840235937500 
