16

 C -3.02480090625000 1.22238344687500 5.70221054375000 
 C -3.11242290625000 4.92513244687500 5.49645654375000 
 C -4.10528890625000 0.543297446875003 5.07363854375000 
 C -4.36585890625000 4.53867544687500 4.85652054375000 
 N -2.03676190625000 1.48054144687500 4.85137154375000 
 N -2.13565290625000 5.07646444687500 4.63108054375000 
 N -3.95683790625000 0.250094446875003 3.77751154375000 
 N -4.21726190625000 4.18233244687500 3.59149754375000 
 N -4.83385090625000 0.909328446875002 7.47972354375000 
 N -4.91929890625000 5.06781844687500 7.25434454375000 
 S -5.47291290625000 0.311681446875002 6.07626454375000 
 S -5.67999790625000 4.29018844687500 5.97684354375000 
 S -2.47592990625000 0.847920446875002 3.38342854375000 
 S -2.68845190625000 4.55392144687500 3.14426154375000 
 S -3.29808090625000 1.56343144687500 7.43545254375000 
 S -3.25506790625000 5.15948244687500 7.18697254375000 
