16

 C -3.19503352500000 1.21843821562500 5.32961059062500 
 C -2.85097152500000 5.28578121562500 5.59082259062500 
 C -4.32895252500000 0.661751215624998 4.63322559062500 
 C -4.17593752500000 5.00761421562500 5.08115059062500 
 N -2.15247152500000 1.64414721562500 4.64926659062500 
 N -1.91460752500000 5.31657121562500 4.62155759062500 
 N -4.10524152500000 0.711130215624998 3.32275459062500 
 N -4.31026052500000 4.89235421562500 3.73001159062500 
 N -4.85223352500000 0.831133215624998 7.16991859062500 
 N -4.66367952500000 4.91702921562500 7.61847359062500 
 S -5.63428252500000 0.316728215624998 5.81409559062500 
 S -5.48258152500000 4.92137721562500 6.16585559062500 
 S -2.57942152500000 1.39527521562500 3.09843359062500 
 S -2.78867852500000 5.01127121562500 3.21004259062500 
 S -3.37819652500000 1.51956921562500 7.04781959062500 
 S -3.00697352500000 5.42498321562500 7.34328359062500 
