16

 C -3.09911729375000 1.01350487187500 5.46110449375000 
 C -3.09790429375000 4.91437287187500 5.52679949375000 
 C -4.25754529375000 0.653281871875002 4.72529349375000 
 C -4.38864729375000 4.66963387187500 4.92346649375000 
 N -1.99647629375000 1.08328287187500 4.73315349375000 
 N -2.09129029375000 4.95934287187500 4.64874449375000 
 N -4.03615229375000 0.565310871875003 3.42593049375000 
 N -4.28480329375000 4.40922187187500 3.59280249375000 
 N -4.91181429375000 0.748762871875003 7.21951949375000 
 N -4.83729529375000 5.03510887187500 7.36292849375000 
 S -5.66458729375000 0.386300871875003 5.79597149375000 
 S -5.72573129375000 5.00195087187500 5.96041649375000 
 S -2.46426129375000 0.912249871875003 3.16841449375000 
 S -2.69738129375000 4.57242387187500 3.10306049375000 
 S -3.31281329375000 1.23639087187500 7.12107449375000 
 S -3.16776129375000 5.09867687187500 7.27744849375000 
