16

 C -3.16901355937500 1.26631095000000 5.84068559062500 
 C -3.05125955937500 4.78727095000000 5.36575859062500 
 C -4.32701855937500 0.826352950000002 5.22450559062500 
 C -4.37061955937500 4.48411095000000 4.81081359062500 
 N -2.19047455937500 1.60757095000000 5.02185959062500 
 N -2.04338455937500 4.74727395000000 4.46767259062500 
 N -4.25987355937500 0.726211950000002 3.92790259062500 
 N -4.38754755937500 4.52195295000000 3.46415859062500 
 N -4.93386455937500 0.611668950000002 7.68283259062500 
 N -4.60494855937500 4.61507495000000 7.38371659062500 
 S -5.59578155937500 0.125528950000002 6.22312359062500 
 S -5.58950455937500 4.37186195000000 6.07883559062500 
 S -2.74449855937500 1.28136495000000 3.47288459062500 
 S -2.80369955937500 4.68497195000000 3.00689559062500 
 S -3.33014055937500 1.12629195000000 7.58476259062500 
 S -2.94840955937500 4.77663395000000 7.12545259062500 
