16

 C -3.40657693125000 1.28903382500000 5.45665965312500 
 C -3.31947193125000 5.16820482500000 5.82940265312500 
 C -4.55328393125000 0.829589824999999 4.74282065312500 
 C -4.50191693125000 4.69894882500000 5.17971565312500 
 N -2.36363493125000 1.62186582500000 4.68799665312500 
 N -2.26475893125000 5.24974082500000 4.98788965312500 
 N -4.48972293125000 0.976910825000000 3.38099765312500 
 N -4.48519493125000 4.75807982500000 3.84131565312500 
 N -5.26793693125000 0.956369824999999 7.14358965312500 
 N -5.01568193125000 4.83087882500000 7.71990365312500 
 S -5.93474093125000 0.410306824999999 5.72991965312500 
 S -5.74889493125000 4.37205782500000 6.28790465312500 
 S -2.94297793125000 1.30791582500000 3.08806765312500 
 S -2.86568093125000 5.09833582500000 3.46531165312500 
 S -3.61882393125000 1.37615182500000 7.15381365312500 
 S -3.41871293125000 5.22831182500000 7.59358565312500 
