16

 C -3.18066920312500 1.53479331562500 5.46151598437500 
 C -2.98934920312500 5.11650531562500 5.51489998437500 
 C -4.46520920312500 1.42313231562500 4.81071798437500 
 C -4.28293520312500 4.85767231562500 4.89467398437500 
 N -2.13537420312500 1.52494831562500 4.64012198437500 
 N -1.96955720312500 5.28884731562500 4.65714998437500 
 N -4.40514420312500 1.49969331562500 3.48286498437500 
 N -4.26270320312500 5.01071831562500 3.58668698437500 
 N -4.87098220312500 1.49142031562500 7.35883098437500 
 N -4.76868520312500 4.67192131562500 7.44727598437500 
 S -5.76683220312500 1.37429531562500 6.00993398437500 
 S -5.55082920312500 4.41687131562500 5.97453898437500 
 S -2.77868220312500 1.69972631562500 3.09931198437500 
 S -2.69582720312500 5.29605931562500 3.13031498437500 
 S -3.21842020312500 1.65747931562500 7.14568598437500 
 S -3.10026420312500 5.02986631562500 7.27501498437500 
