16

 C -2.92022915312500 1.73422370000000 5.39798008750000 
 C -3.48250915312500 5.16998870000000 5.54694208750000 
 C -3.94978215312500 1.03381970000000 4.76617808750000 
 C -4.53010315312500 4.40021370000000 4.93911508750000 
 N -1.95150215312500 2.13642170000000 4.57308308750000 
 N -2.51314315312500 5.57928570000000 4.72769808750000 
 N -3.74170915312500 0.833781699999999 3.46136708750000 
 N -4.44425215312500 4.37268670000000 3.59824808750000 
 N -4.50476815312500 1.14897070000000 7.27866508750000 
 N -5.29154615312500 4.69220670000000 7.36701608750000 
 S -5.08830615312500 0.437135699999998 5.91328508750000 
 S -5.86107415312500 3.93708270000000 6.02653108750000 
 S -2.27766215312500 1.59507170000000 3.03444208750000 
 S -2.97829815312500 5.06004170000000 3.22663308750000 
 S -3.03870315312500 1.94292670000000 7.13584808750000 
 S -3.74212415312500 5.28908670000000 7.26620708750000 
