16

 C -3.35149587187500 1.45700779687500 5.20877974687500 
 C -3.10351187187500 5.22238979687500 5.35234274687500 
 C -4.52729287187500 0.986928796875000 4.53345574687500 
 C -4.26024887187500 4.50123379687500 4.79613274687500 
 N -2.27018287187500 1.42246379687500 4.46626674687500 
 N -2.00938487187500 5.16365979687500 4.59161174687500 
 N -4.28544087187500 0.617252796874999 3.28768674687500 
 N -4.03213387187500 4.04639479687500 3.55493674687500 
 N -5.11250987187500 1.10430879687500 6.99911374687500 
 N -4.86014687187500 4.96709879687500 7.26302374687500 
 S -5.86743387187500 0.668874796875000 5.56813774687500 
 S -5.61898787187500 4.45838979687500 5.86061374687500 
 S -2.64187787187500 0.871657796875000 2.94822474687500 
 S -2.40479287187500 4.29113679687500 3.26393074687500 
 S -3.55799287187500 1.72420679687500 6.87408774687500 
 S -3.27029987187500 5.51177179687500 7.12160474687500 
