16

 C -3.19124195625000 1.36933603437500 5.36646290000000 
 C -3.21509695625000 5.05532403437500 5.41662290000000 
 C -4.34854095625000 0.561478034375002 4.87880890000000 
 C -4.49557395625000 4.66189103437500 4.92682490000000 
 N -2.22534095625000 1.53825203437500 4.47761090000000 
 N -2.20722495625000 5.06769203437500 4.53851090000000 
 N -4.16270995625000 0.317173034375002 3.58339690000000 
 N -4.43568995625000 4.35381303437500 3.63184790000000 
 N -4.86755395625000 1.25823503437500 7.37251190000000 
 N -4.79581695625000 4.87517703437500 7.45542190000000 
 S -5.56385795625000 0.376677034375002 6.13909290000000 
 S -5.77037895625000 4.70793603437500 6.13431390000000 
 S -2.70735195625000 0.873917034375002 3.05393090000000 
 S -2.91631495625000 4.70856503437500 3.09648390000000 
 S -3.39720095625000 1.89814403437500 7.01209890000000 
 S -3.28007395625000 5.35289003437500 7.09652390000000 
