16

 C -3.09637618125000 1.08853771875000 5.45078524062500 
 C -3.13899318125000 4.79451771875000 5.50569524062500 
 C -4.27832518125000 0.618755718750002 4.79388224062500 
 C -4.44474518125000 4.72432271875000 4.90813524062500 
 N -2.12535118125000 1.40603971875000 4.57123024062500 
 N -2.13100018125000 4.67077071875000 4.65930024062500 
 N -4.21211218125000 0.590042718750002 3.46531824062500 
 N -4.38892618125000 4.48308371875000 3.58279124062500 
 N -4.88575418125000 0.582605718750003 7.30014524062500 
 N -4.79218618125000 5.03322071875000 7.39391624062500 
 S -5.58051118125000 0.258984718750003 5.82762224062500 
 S -5.72993018125000 4.90638271875000 6.02778824062500 
 S -2.69142418125000 0.994023718750002 3.05065124062500 
 S -2.79227618125000 4.44526871875000 3.13714624062500 
 S -3.26366618125000 1.00236271875000 7.22270624062500 
 S -3.18382218125000 4.84950671875000 7.20962924062500 
