16

 C -3.30471805625000 0.929113859374997 5.47350434062500 
 C -3.25097005625000 5.19380185937500 5.43166234062500 
 C -4.52707505625000 0.693418859374997 4.74047134062500 
 C -4.39639705625000 4.61540885937500 4.76047134062500 
 N -2.23171405625000 1.13075485937500 4.69040834062500 
 N -2.24560005625000 5.47922185937500 4.62689334062500 
 N -4.34006705625000 0.644861859374998 3.41631634062500 
 N -4.28539905625000 4.56871185937500 3.46551334062500 
 N -5.14933305625000 0.765738859374997 7.24938834062500 
 N -5.10503905625000 4.59010785937500 7.18302234062500 
 S -5.94111505625000 0.529485859374997 5.80221934062500 
 S -5.62249105625000 3.96262085937500 5.72667734062500 
 S -2.71266705625000 0.913693859374997 3.14051234062500 
 S -2.80723205625000 5.16615285937500 3.03356834062500 
 S -3.51727605625000 0.971163859374997 7.14034034062500 
 S -3.60655105625000 5.39487585937500 7.14012634062500 
