16

 C -3.14064167500000 1.26063423437500 5.69400074062500 
 C -3.41873367500000 5.28789023437500 5.39340074062500 
 C -4.26165667500000 0.565701234375002 5.01280574062500 
 C -4.43910667500000 4.49015623437500 4.81320174062500 
 N -2.18383767500000 1.64193823437500 4.86628174062500 
 N -2.45823867500000 5.62733723437500 4.58070174062500 
 N -4.12607367500000 0.468363234375001 3.70326174062500 
 N -4.20790467500000 4.09638823437500 3.58200774062500 
 N -4.83955267500000 0.882546234375002 7.51887574062500 
 N -5.21773867500000 4.99561623437500 7.22626874062500 
 S -5.59107767500000 0.289810234375001 6.13534974062500 
 S -5.80618267500000 4.13221223437500 5.90042474062500 
 S -2.61297767500000 1.07736223437500 3.37934274062500 
 S -2.76629367500000 4.83964023437500 3.18398374062500 
 S -3.34787367500000 1.65433623437500 7.36124774062500 
 S -3.76924767500000 5.75561923437500 6.96877174062500 
