16

 C -3.20626675312500 1.66009965625000 5.69660872812500 
 C -3.05084875312500 5.26514565625000 5.88069872812500 
 C -4.24984875312500 0.927448656249995 5.04193172812500 
 C -4.25288875312500 4.65070165624999 5.29448272812500 
 N -2.18527075312500 2.02420365624999 4.85154672812500 
 N -2.11004875312500 5.61221465624999 5.01866672812500 
 N -4.13693375312500 0.791860656249995 3.72935172812500 
 N -4.14933075312500 4.48810365625000 3.99624072812500 
 N -5.05467775312500 1.10435665625000 7.46011572812500 
 N -4.66572175312500 4.92590165624999 7.86058472812500 
 S -5.67351475312500 0.631444656249995 5.94611572812500 
 S -5.61316275312500 4.50157365625000 6.49873872812500 
 S -2.70963975312500 1.46675365625000 3.32677772812500 
 S -2.62664275312500 5.09329165625000 3.54166872812500 
 S -3.54656375312500 1.85916465624999 7.46115372812500 
 S -3.18864975312500 5.57266665624999 7.60236972812500 
