16

 C -2.84364911562500 1.25855096562500 5.73877106562500 
 C -2.97408611562500 4.68550396562500 5.53904106562500 
 C -4.15830411562500 1.20907496562500 5.09556906562500 
 C -4.14512311562500 4.42947396562500 4.80346706562500 
 N -1.83569611562500 1.07523896562500 4.92913906562500 
 N -1.88237111562500 4.64581096562500 4.79705306562500 
 N -4.08353111562500 0.936334965625000 3.78968706562500 
 N -3.96839511562500 4.25717296562500 3.47373406562500 
 N -4.66016411562500 1.46643896562500 7.52467206562500 
 N -4.92807611562500 4.82251896562500 7.23712106562500 
 S -5.56105911562500 1.37104196562500 6.14860006562500 
 S -5.62410411562500 4.36329796562500 5.71697806562500 
 S -2.43620311562500 0.978260965625000 3.39538006562500 
 S -2.35379511562500 4.39792896562500 3.21284106562500 
 S -3.05251511562500 1.61003096562500 7.41906006562500 
 S -3.29958411562500 5.12220896562500 7.16394706562500 
