16

 C -2.97373936875000 1.18506477187500 5.71841126562500 
 C -2.91776336875000 4.72255277187500 5.44844926562500 
 C -4.29591436875000 1.01091777187500 5.24121126562500 
 C -4.15403636875000 4.47920877187500 4.75362026562500 
 N -2.04803636875000 0.947841771875000 4.77084226562500 
 N -1.91661036875000 4.90509477187500 4.63778326562500 
 N -4.47082636875000 0.630076771874998 3.97269726562500 
 N -4.02452636875000 4.28881577187500 3.47881426562500 
 N -4.48976636875000 1.74804377187500 7.69143826562500 
 N -4.65572936875000 4.86597077187500 7.27357326562500 
 S -5.49571236875000 1.42783477187500 6.43597226562500 
 S -5.48941536875000 4.59502477187500 5.83382526562500 
 S -2.85478436875000 0.551027771874999 3.38077726562500 
 S -2.41579236875000 4.61585177187500 3.09711226562500 
 S -2.89990336875000 1.60103877187500 7.41555326562500 
 S -2.98754036875000 4.79078477187500 7.13034026562500 
