16

 C -3.16902131562500 1.55161120937500 5.39035830625000 
 C -3.05647231562500 4.96857020937500 5.40950930625000 
 C -4.40992231562500 1.15367720937500 4.69181630625000 
 C -4.33342331562500 4.91095220937500 4.71169730625000 
 N -2.15617931562500 1.85760020937500 4.57700030625000 
 N -2.02162531562500 5.15309220937500 4.62992430625000 
 N -4.22443431562500 1.00133420937500 3.40117030625000 
 N -4.25361331562500 4.90429220937500 3.39471830625000 
 N -4.97780131562500 1.15555420937500 7.15711930625000 
 N -4.83940231562500 4.98902520937500 7.30179930625000 
 S -5.76571231562500 0.849746209375000 5.70048630625000 
 S -5.56820631562500 4.74381520937500 5.86595630625000 
 S -2.69273031562500 1.54646020937500 2.97063430625000 
 S -2.59483231562500 5.05121820937500 3.06796830625000 
 S -3.38369931562500 1.61547020937500 7.10462430625000 
 S -3.23854031562500 4.84443220937500 7.21114130625000 
