16

 C -2.99764026562500 1.27883401562501 5.68418161250000 
 C -2.88911926562500 4.83302701562500 5.45901061250000 
 C -4.25624726562500 1.12306101562501 5.06166961250000 
 C -4.13374926562500 4.59956601562500 4.73412761250000 
 N -1.94628726562500 1.09093701562501 4.83473761250000 
 N -1.81304626562500 4.78656801562500 4.65526061250000 
 N -4.17792726562500 0.891541015625005 3.72528961250000 
 N -3.98300326562500 4.33730301562501 3.46673061250000 
 N -4.52731726562500 1.41651301562501 7.67058661250000 
 N -4.77746926562500 4.77375301562500 7.23076061250000 
 S -5.48465626562500 1.49343701562501 6.32066461250000 
 S -5.54118526562500 4.45061301562501 5.75044361250000 
 S -2.59808926562500 0.676791015625005 3.41389561250000 
 S -2.39506026562500 4.38385501562501 3.11662961250000 
 S -2.90671426562500 1.59268601562501 7.40806961250000 
 S -3.17307026562500 5.02021301562501 7.19940361250000 
