16

 C -3.16281171562500 1.27373313750000 5.70354180000000 
 C -3.01265671562500 4.68057013750000 5.41575280000000 
 C -4.39922571562500 0.838077137499999 5.11778680000000 
 C -4.21802571562500 4.20784013750000 4.79323480000000 
 N -2.08261371562500 1.25227513750000 4.90063580000000 
 N -1.91219071562500 4.71605313750000 4.64803380000000 
 N -4.32185571562500 0.644736137499999 3.79993280000000 
 N -4.12670171562500 4.00671913750000 3.49476280000000 
 N -4.81421071562500 1.09032613750000 7.66885180000000 
 N -4.92333171562500 4.78414813750000 7.24082080000000 
 S -5.65872771562500 0.775753137499999 6.24401780000000 
 S -5.56556971562500 4.02772913750000 5.93322980000000 
 S -2.76448571562500 0.902451137499999 3.37847980000000 
 S -2.50871471562500 4.31490313750000 3.09986780000000 
 S -3.23569371562500 1.61056713750000 7.41646980000000 
 S -3.34734671562500 5.12616413750000 7.09088780000000 
