16

 C -3.36606811250000 1.28605109687500 5.26558916562500 
 C -3.10785311250000 5.09906009687500 5.45069916562500 
 C -4.59152011250000 0.880316096875000 4.68983416562500 
 C -4.37845211250000 5.12276909687500 4.75845516562500 
 N -2.37311011250000 1.41617509687500 4.41549016562500 
 N -2.02966411250000 5.35578209687500 4.68477516562500 
 N -4.55562611250000 0.592518096874999 3.40817116562500 
 N -4.23481811250000 5.17978909687500 3.40335116562500 
 N -4.99659611250000 1.12177609687500 7.18576516562500 
 N -5.00345511250000 4.83652109687500 7.21149516562500 
 S -5.73520211250000 0.555247096875000 5.86894916562500 
 S -5.87465811250000 4.99720309687500 5.73089416562500 
 S -2.98766711250000 1.04055309687500 2.92667916562500 
 S -2.60519211250000 5.45188209687500 3.13323316562500 
 S -3.40164111250000 1.58682609687500 6.98724816562500 
 S -3.35930111250000 5.12667609687500 7.16288416562500 
