16

 C -2.99565402812500 1.35126947500000 5.51282606562500 
 C -3.17260402812500 5.07105247500000 5.53091006562500 
 C -4.26667302812500 1.26079747500000 4.87112106562500 
 C -4.37779902812500 4.62674347500000 4.91537806562500 
 N -1.97458202812500 1.30502947500000 4.68208006562500 
 N -2.15387202812500 5.15891447500000 4.73743806562500 
 N -4.17887802812500 1.01218047500000 3.58543006562500 
 N -4.25763502812500 4.29302447500000 3.63931806562500 
 N -4.82548902812500 1.52631147500000 7.32720806562500 
 N -5.01984602812500 5.18592647500000 7.32572506562500 
 S -5.61584502812500 1.51200247500000 5.86140406562500 
 S -5.75566002812500 4.59497547500000 5.93737906562500 
 S -2.56841502812500 1.09928147500000 3.15483506562500 
 S -2.72378402812500 4.66692547500000 3.20467206562500 
 S -3.14157102812500 1.60401147500000 7.20253706562500 
 S -3.40223302812500 5.43227647500000 7.22099006562500 
