16

 C -3.22608860312500 1.29443048750000 5.28728551875000 
 C -2.92097160312500 5.24784948750000 5.33874251875000 
 C -4.48372560312500 0.926989487499997 4.73266351875000 
 C -4.13963360312500 4.87953348750000 4.64976451875000 
 N -2.17655560312500 1.20609748750000 4.48095051875000 
 N -1.84294660312500 5.42468048750000 4.57945951875000 
 N -4.40068260312500 0.568259487499997 3.44559651875000 
 N -3.92835760312500 4.59102448750000 3.34498851875000 
 N -4.89507560312500 1.31547548750000 7.28408851875000 
 N -4.67505460312500 4.85762148750000 7.24226251875000 
 S -5.77918360312500 0.908172487499997 5.93899951875000 
 S -5.42386860312500 4.45977248750000 5.79686651875000 
 S -2.77574960312500 0.637150487499997 3.03431451875000 
 S -2.28824660312500 4.92763448750000 3.06012451875000 
 S -3.27503360312500 1.56984948750000 6.99189051875000 
 S -3.11394060312500 5.48581048750000 7.13201351875000 
