16

 C -3.19772008437500 1.08449500312500 5.57386744062500 
 C -3.27414308437500 5.16964600312500 5.67873444062500 
 C -4.43453608437500 0.878529003125000 4.89497544062500 
 C -4.32060308437500 4.45334900312500 5.06301544062500 
 N -2.12983008437500 1.16868700312500 4.75850144062500 
 N -2.28362108437500 5.53418800312500 4.86183944062500 
 N -4.34845308437500 0.743723003125000 3.56427944062500 
 N -4.19482808437500 4.36737600312500 3.75119844062500 
 N -5.01185908437500 0.523601003125000 7.43652444062500 
 N -4.91036308437500 4.43512900312500 7.57583744062500 
 S -5.80989208437500 0.565801003124999 5.99587844062500 
 S -5.66129608437500 4.12198900312500 6.13051244062500 
 S -2.73894608437500 0.921007003125000 3.21898944062500 
 S -2.74175808437500 5.04023700312500 3.33986344062500 
 S -3.44042608437500 1.01654700312500 7.28169744062500 
 S -3.50786208437500 5.32121000312500 7.38354444062500 
