16

 C -3.50040249062500 1.61620524375000 5.38167763750000 
 C -3.28358649062500 4.91444424375000 5.78253563750000 
 C -4.63110849062500 1.07321724375000 4.58865063750000 
 C -4.53953249062500 4.68999324375000 5.10852163750000 
 N -2.54218849062500 2.03325824375000 4.58464563750000 
 N -2.25209249062500 5.09263824375000 4.91856563750000 
 N -4.45274849062500 1.00449324375000 3.31124063750000 
 N -4.44719949062500 4.46255724375000 3.80271163750000 
 N -5.24233149062500 0.928884243749999 7.06035863750000 
 N -5.08319949062500 4.97543924375000 7.64602863750000 
 S -6.03382949062500 0.688757243749999 5.59776463750000 
 S -5.84601549062500 4.65740124375000 6.15812963750000 
 S -2.85589049062500 1.57028924375000 3.07339463750000 
 S -2.87546749062500 4.77399024375000 3.41177663750000 
 S -3.78139549062500 1.71871024375000 7.04715763750000 
 S -3.41692349062500 5.16404924375000 7.50305363750000 
