16

 C -3.23647819375000 1.19772536875000 5.60236409687500 
 C -3.27042719375000 4.93971236875000 5.56152409687500 
 C -4.43263519375000 0.868624368749998 4.88560309687500 
 C -4.42578719375000 4.47177436875000 4.90704009687500 
 N -2.17933719375000 1.42437336875000 4.83320209687500 
 N -2.29496119375000 5.17485136875000 4.69082809687500 
 N -4.31295019375000 0.933913368749998 3.50789009687500 
 N -4.41813719375000 4.46231736875000 3.58113309687500 
 N -4.96395019375000 1.27547436875000 7.45478809687500 
 N -5.27477819375000 4.78424036875000 7.27050009687500 
 S -5.74791119375000 0.876121368749999 6.01516009687500 
 S -5.80770919375000 4.10610936875000 5.86196509687500 
 S -2.61820519375000 1.21098236875000 3.29272009687500 
 S -2.87691819375000 4.93854536875000 3.13917909687500 
 S -3.30035419375000 1.60296936875000 7.20375709687500 
 S -3.65331319375000 5.10199536875000 7.32329709687500 
