16

 C -3.18190184062500 0.942497815625003 5.60102212187500 
 C -2.93215484062500 5.10216481562500 5.60135112187500 
 C -4.33273684062500 0.502759815625002 4.87335812187500 
 C -4.10422184062500 4.54883181562500 4.95494412187500 
 N -2.10477884062500 1.19855781562500 4.84043312187500 
 N -1.90728584062500 5.25766781562500 4.79084512187500 
 N -4.15065784062500 0.505876815625003 3.51368212187500 
 N -4.00924084062500 4.49430781562500 3.62223612187500 
 N -5.16240584062500 1.04819681562500 7.35549912187500 
 N -4.72022084062500 4.77976181562500 7.44849512187500 
 S -5.83038984062500 0.384210815625003 6.00892212187500 
 S -5.47280684062500 4.27200281562500 6.06428512187500 
 S -2.55842684062500 0.827616815625003 3.27178712187500 
 S -2.41422384062500 4.83288181562500 3.25953012187500 
 S -3.51141284062500 1.27348581562500 7.31490112187500 
 S -3.16017784062500 5.34718081562500 7.27201812187500 
