16

 C -3.44308559062500 1.49420285000000 5.56450473750000 
 C -3.10506059062500 5.11577185000000 5.41465873750000 
 C -4.42566259062500 0.609628850000004 4.92021073750000 
 C -4.24799859062500 4.77439685000000 4.66658673750000 
 N -2.48460859062500 1.82188985000000 4.71037573750000 
 N -1.96311959062500 5.16032885000000 4.75437373750000 
 N -4.19116159062500 0.291856850000003 3.68382073750000 
 N -3.95985359062500 4.46902585000000 3.40424273750000 
 N -5.28201459062500 0.842861850000003 7.26459773750000 
 N -4.93011559062500 5.06172585000000 7.24771673750000 
 S -5.85728459062500 0.254169850000003 5.83586573750000 
 S -5.67056559062500 4.97086885000000 5.72908173750000 
 S -2.70666959062500 0.963622850000003 3.27302473750000 
 S -2.32379559062500 4.65999485000000 3.18362773750000 
 S -3.87871059062500 1.74881785000000 7.23694173750000 
 S -3.30437159062500 5.49565385000000 7.05899973750000 
