16

 C -3.14809806250000 1.44942783750001 5.43509765625000 
 C -3.32970006250000 5.13168883750001 5.39943365625000 
 C -4.37875306250000 0.747925837500007 4.88099965625000 
 C -4.57807006250000 4.67075083750001 4.83948165625000 
 N -2.14562306250000 1.56359483750001 4.57791365625000 
 N -2.34294506250000 5.23087583750001 4.53149165625000 
 N -4.22517906250000 0.274642837500006 3.65903265625000 
 N -4.49601006250000 4.28458283750001 3.55842165625000 
 N -4.89566506250000 1.32406283750001 7.28504265625000 
 N -4.88648306250000 5.00359683750001 7.40170065625000 
 S -5.54047706250000 0.418128837500007 6.04571565625000 
 S -5.81373406250000 4.77253483750001 6.02313765625000 
 S -2.76358806250000 0.816518837500007 3.16964165625000 
 S -2.90559006250000 4.61303783750001 3.07179265625000 
 S -3.33347206250000 1.93766483750001 7.05308065625000 
 S -3.26468806250000 5.49927983750001 7.11848665625000 
