16

 C -3.19544807500000 1.28828468437500 5.35646626562500 
 C -2.85293607500000 5.30938168437500 5.64163926562500 
 C -4.38730807500000 0.785892684375000 4.65757826562500 
 C -4.17509707500000 5.04316968437500 5.13404726562500 
 N -2.13099407500000 1.63167668437500 4.62842226562500 
 N -1.94616907500000 5.30898468437500 4.64478726562500 
 N -4.17020707500000 0.717282684375000 3.33987126562500 
 N -4.31304907500000 4.92777668437500 3.85718726562500 
 N -4.83457407500000 0.807928684375000 7.21288726562500 
 N -4.61458507500000 4.88768068437500 7.61849226562500 
 S -5.65192307500000 0.256212684375000 5.82426726562500 
 S -5.52400207500000 4.88187868437500 6.17639826562500 
 S -2.59942407500000 1.44932168437500 3.07807826562500 
 S -2.80214107500000 5.04860768437500 3.21223826562500 
 S -3.38272707500000 1.55431568437500 7.00652426562500 
 S -2.97779507500000 5.45747468437500 7.42679926562500 
