16

 C -3.38091359375000 1.26074596562500 5.45099688750000 
 C -3.11875859375000 4.94153496562500 5.03820988750000 
 C -4.53190659375000 0.641258965625000 4.80068388750000 
 C -4.30579859375000 4.40286596562500 4.46068488750000 
 N -2.38003059375000 1.65559896562500 4.65242788750000 
 N -2.15547159375000 5.12906596562500 4.16144488750000 
 N -4.41925859375000 0.549012965625000 3.46223288750000 
 N -4.24753659375000 4.25652196562500 3.11942288750000 
 N -5.11818859375000 0.900615965625000 7.30723888750000 
 N -4.95391459375000 4.81462296562500 6.83009788750000 
 S -5.85889959375000 0.397229965625000 5.91482088750000 
 S -5.68190859375000 4.09454796562500 5.47381888750000 
 S -2.85696559375000 1.20711496562500 3.16903888750000 
 S -2.70379559375000 4.77795296562500 2.64669688750000 
 S -3.58799059375000 1.45155496562500 7.18645388750000 
 S -3.35827659375000 5.21319196562500 6.78788588750000 
