16

 C -3.03037396875000 1.62867371250000 5.41232350625000 
 C -3.21505096875000 5.12425771250000 5.58983150625000 
 C -4.31592496875000 1.15028471250000 4.86707850625000 
 C -4.47163796875000 4.81120271250000 4.95308750625000 
 N -1.99512496875000 1.61128471250000 4.58146550625000 
 N -2.17186196875000 5.34620371250000 4.79768350625000 
 N -4.23960896875000 0.748848712500001 3.59433050625000 
 N -4.33470096875000 4.69846271250000 3.63105550625000 
 N -4.61629796875000 1.21762771250000 7.32571550625000 
 N -4.96433796875000 4.79148371250000 7.40548750625000 
 S -5.59659496875000 1.05275871250000 6.02365050625000 
 S -5.79987996875000 4.32237971250000 6.01949650625000 
 S -2.69804396875000 1.16710071250000 3.12055350625000 
 S -2.74689496875000 5.03185771250000 3.22369350625000 
 S -3.06280896875000 1.81282871250000 7.09593450625000 
 S -3.36296096875000 5.07462171250000 7.29013650625000 
