16

 C -3.14743616562500 1.34879398750000 5.50995239375000 
 C -3.10426016562500 5.17480598750000 5.59370039375000 
 C -4.25239416562500 0.713274987499996 4.82044439375000 
 C -4.17342516562500 4.56449098750000 4.87111039375000 
 N -2.12588616562500 1.70545898750000 4.71914239375000 
 N -1.99631916562500 5.34496298750000 4.85139539375000 
 N -4.14476216562500 0.628959987499996 3.51747039375000 
 N -4.04662116562500 4.40593598750000 3.55250739375000 
 N -4.91369416562500 0.898014987499995 7.30363739375000 
 N -5.24229016562500 5.11015698750000 7.13603439375000 
 S -5.62873116562500 0.359787987499996 5.88073139375000 
 S -5.62506816562500 4.23975198750000 5.79257039375000 
 S -2.59505316562500 1.33631598750000 3.18550539375000 
 S -2.44596016562500 4.87916798750000 3.29852839375000 
 S -3.35608816562500 1.54594298750000 7.11937139375000 
 S -3.57436016562500 5.59910798750000 7.23390939375000 
