16

 C -2.87260429687500 1.31381033750000 5.47937565000000 
 C -3.03866029687500 5.20970533750000 5.61648365000000 
 C -4.06245629687500 0.848418337500001 4.80477765000000 
 C -4.13872729687500 4.55506533750000 4.97605565000000 
 N -1.78797329687500 1.36241533750000 4.69224165000000 
 N -1.97942629687500 5.41299533750000 4.81875265000000 
 N -3.90205129687500 0.709690337500001 3.49330265000000 
 N -3.95563429687500 4.30692533750000 3.67850465000000 
 N -4.75178829687500 1.09511533750000 7.41901065000000 
 N -4.72543129687500 4.66312033750000 7.51358665000000 
 S -5.48955529687500 0.750614337500001 5.92042365000000 
 S -5.45610329687500 4.33537333750000 6.07445365000000 
 S -2.34215929687500 0.976575337500001 3.11957765000000 
 S -2.43171129687500 4.89981733750000 3.29771765000000 
 S -3.11090029687500 1.35481133750000 7.25906765000000 
 S -3.20690529687500 5.40091833750000 7.38804165000000 
