16

 C -2.94433126562500 1.45689837187500 5.80073385312500 
 C -3.18677326562500 4.60717437187500 5.60700685312500 
 C -4.21433926562500 1.23033037187500 5.14129785312500 
 C -4.45687926562500 4.48691237187500 4.90241885312500 
 N -1.94861626562500 1.51999137187500 4.92725885312500 
 N -2.10283026562500 4.67663037187500 4.86455885312500 
 N -4.09822026562500 0.979803371874995 3.84530785312500 
 N -4.33382126562500 4.55271737187500 3.57336085312500 
 N -4.73457426562500 1.51410737187500 7.62110285312500 
 N -4.93500726562500 4.59154737187500 7.46675585312500 
 S -5.51697626562500 1.24959337187500 6.21414285312500 
 S -5.75195126562500 4.35100537187500 6.03086985312500 
 S -2.53624326562500 1.26877137187500 3.33790985312500 
 S -2.70858526562500 4.63029937187500 3.29296185312500 
 S -3.10862226562500 1.66141437187500 7.49759985312500 
 S -3.31648026562500 4.88141037187500 7.25562185312500 
