16

 C -3.16863988750000 1.44473407500000 5.34082383437500 
 C -3.12724988750000 5.28155107500000 5.54339283437500 
 C -4.36869988750000 0.917354075000000 4.70231883437500 
 C -4.35534388750000 4.75742007500000 4.96946383437500 
 N -2.25814788750000 1.83593707500000 4.43809983437500 
 N -2.21676888750000 5.53780207500000 4.62644383437500 
 N -4.37851488750000 0.928340075000000 3.38058383437500 
 N -4.32571488750000 4.56186907500000 3.66262583437500 
 N -4.76511088750000 0.667936075000000 7.14823583437500 
 N -4.82646188750000 4.94764307500000 7.55349883437500 
 S -5.63224788750000 0.384292075000000 5.75868283437500 
 S -5.60207388750000 4.53129407500000 6.15932283437500 
 S -2.86860288750000 1.53507407500000 2.95742683437500 
 S -2.78639388750000 5.05324307500000 3.15191483437500 
 S -3.29975588750000 1.44729407500000 7.03213183437500 
 S -3.28253188750000 5.51550207500000 7.25573183437500 
