16

 C -3.11272675312500 1.38839184062500 5.53272047500000 
 C -2.89563975312500 5.17811484062500 5.88816847500000 
 C -4.31804175312500 0.962014840625002 4.85895947500000 
 C -4.06109475312500 4.74277384062500 5.16676247500000 
 N -2.14987875312500 1.68482484062500 4.65970347500000 
 N -1.86318375312500 5.48470984062500 5.08249247500000 
 N -4.19047975312500 0.824475840625002 3.55673147500000 
 N -3.84609275312500 4.56501284062500 3.84517247500000 
 N -4.87860575312500 0.787797840625002 7.34713347500000 
 N -4.75725675312500 4.85409684062500 7.63470547500000 
 S -5.67023375312500 0.672918840625002 5.88039347500000 
 S -5.51667875312500 4.65148384062500 6.18529547500000 
 S -2.73010875312500 1.46745784062500 3.16035447500000 
 S -2.32474475312500 5.10617984062500 3.56600547500000 
 S -3.28820475312500 1.31018484062500 7.27030247500000 
 S -3.18321175312500 5.37830684062500 7.57754647500000 
