16

 C -3.08995772812500 1.26753781875000 5.67026815000000 
 C -3.11929072812500 5.00765881875000 5.48336515000000 
 C -4.27970472812500 0.768039818749997 5.09007515000000 
 C -4.27184772812500 4.42094481875000 4.89634315000000 
 N -2.06842572812500 1.28277681875000 4.83848715000000 
 N -1.99939572812500 5.05330281875000 4.76147915000000 
 N -4.16124872812500 0.464802818749997 3.80606015000000 
 N -4.04125072812500 4.06425181875000 3.63584815000000 
 N -4.79940372812500 1.08036081875000 7.53004415000000 
 N -4.88278272812500 4.89233881875000 7.32799915000000 
 S -5.62115372812500 0.702667818749998 6.13939615000000 
 S -5.59454872812500 4.24458081875000 6.00612515000000 
 S -2.57837672812500 0.721147818749997 3.35376715000000 
 S -2.48546272812500 4.44517881875000 3.27873115000000 
 S -3.20484272812500 1.64690481875000 7.35110515000000 
 S -3.30162472812500 5.36748881875000 7.14491815000000 
