16

 C -3.11114433750000 0.908717018750002 5.74000549375000 
 C -3.27790633750000 5.21513801875000 5.60140449375000 
 C -4.36416233750000 0.640579018750002 5.03371749375000 
 C -4.33419733750000 4.47418501875000 4.98617049375000 
 N -2.06172533750000 1.15259301875000 4.95179549375000 
 N -2.27356833750000 5.53503101875000 4.79519849375000 
 N -4.24424433750000 0.642726018750002 3.69359549375000 
 N -4.21374133750000 4.41531901875000 3.67705449375000 
 N -4.96138133750000 0.944066018750002 7.54383649375000 
 N -5.08350333750000 4.79015101875000 7.37165949375000 
 S -5.70312933750000 0.585991018750001 6.09855049375000 
 S -5.58962533750000 3.87123901875000 6.05434349375000 
 S -2.63862733750000 0.927839018750002 3.43191449375000 
 S -2.78319533750000 5.10143401875000 3.26182949375000 
 S -3.26683833750000 1.18430801875000 7.46113149375000 
 S -3.47632933750000 5.26164701875000 7.31546149375000 
