16

 C -3.21347274062500 1.53067467187500 5.48759936250000 
 C -2.97921474062500 5.06952667187500 5.51343836250000 
 C -4.44544674062500 1.07947667187500 4.91888136250000 
 C -4.23471774062500 4.73822667187500 4.85060136250000 
 N -2.25059974062500 1.76286367187500 4.62383736250000 
 N -1.97824974062500 5.00908267187500 4.64053436250000 
 N -4.38376274062500 0.939310671875000 3.55963336250000 
 N -4.13518874062500 4.27541167187500 3.58113336250000 
 N -4.88728174062500 1.43396867187500 7.42917936250000 
 N -4.65649974062500 5.08433067187500 7.32924636250000 
 S -5.64434574062500 0.860615671875000 6.09775036250000 
 S -5.56646374062500 4.86656767187500 5.95573736250000 
 S -2.82744174062500 1.28762767187500 3.12070636250000 
 S -2.56801874062500 4.49710867187500 3.17825436250000 
 S -3.24024274062500 1.78714667187500 7.18968736250000 
 S -3.01884474062500 5.29633267187500 7.19840736250000 
