16

 C -3.25775125937500 1.50284016875000 5.32596768125000 
 C -3.00232225937500 5.04154616875000 5.42441168125000 
 C -4.44683225937500 0.975185168750000 4.64167468125000 
 C -4.31933725937500 5.02267316875000 4.77006668125000 
 N -2.21651725937500 1.72872916875000 4.50974868125000 
 N -1.99306925937500 5.12266716875000 4.58439668125000 
 N -4.32703025937500 0.891882168750000 3.31861668125000 
 N -4.22856225937500 5.09038516875000 3.48838668125000 
 N -5.00134725937500 1.23364316875000 7.19306468125000 
 N -4.89290025937500 4.86655616875000 7.24197068125000 
 S -5.71964625937500 0.784162168750001 5.72043568125000 
 S -5.74987325937500 4.82064616875000 5.76438168125000 
 S -2.81897425937500 1.39993716875000 2.97531468125000 
 S -2.66053025937500 5.17797716875000 3.03328968125000 
 S -3.38759125937500 1.57170116875000 7.07299268125000 
 S -3.14998625937500 4.86419316875000 7.12191168125000 
