16

 C -3.34107330312500 1.02634537812500 5.66020592187500 
 C -2.93534630312500 5.11074637812500 5.57317792187500 
 C -4.53161830312500 0.652285378124998 4.89863392187500 
 C -4.13276630312500 4.66021337812500 4.89184592187500 
 N -2.28000730312500 1.16023837812500 4.87708692187500 
 N -1.92707630312500 5.16478537812500 4.69816392187500 
 N -4.37966730312500 0.376088378124998 3.62688792187500 
 N -4.06707030312500 4.35377337812500 3.60456692187500 
 N -5.21866530312500 0.859347378124999 7.29381492187500 
 N -4.71159430312500 4.79503537812500 7.36898592187500 
 S -5.88991030312500 0.249678378124998 5.90150892187500 
 S -5.42701830312500 4.30724637812500 5.96783092187500 
 S -2.86147730312500 0.887600378124999 3.35195092187500 
 S -2.46931930312500 4.75815537812500 3.19256292187500 
 S -3.61773830312500 1.25159237812500 7.31852592187500 
 S -3.14851030312500 5.36763737812500 7.28892792187500 
