16

 C -2.98813927500000 1.13305406875000 5.67000855000000 
 C -3.09390327500000 4.84646006875000 5.48543955000000 
 C -4.12668627500000 0.475912068749998 4.99926255000000 
 C -4.33934327500000 4.44561806875000 4.89446255000000 
 N -2.02207427500000 1.52649206875000 4.82657255000000 
 N -2.05116127500000 4.98733606875000 4.66420055000000 
 N -3.96836127500000 0.250861068749998 3.69392155000000 
 N -4.22215227500000 4.16213106875000 3.60819255000000 
 N -4.88448227500000 0.978107068749998 7.44429055000000 
 N -4.91914027500000 5.16135406875000 7.22012555000000 
 S -5.49172027500000 0.313603068749998 6.02305555000000 
 S -5.67157927500000 4.32787206875000 5.98134955000000 
 S -2.51339127500000 0.907349068749998 3.36257655000000 
 S -2.67994527500000 4.55595106875000 3.17340055000000 
 S -3.34808327500000 1.58661406875000 7.35006855000000 
 S -3.28806327500000 5.18841306875000 7.15488155000000 
