16

 C -3.10302714687500 1.45940021250000 5.36148247500000 
 C -3.20460614687500 5.25468621250000 5.68338047500000 
 C -4.24749814687500 0.668655212500004 4.89371447500000 
 C -4.37768014687500 4.69968821250000 5.04922647500000 
 N -2.15363414687500 1.62400521250000 4.42249347500000 
 N -2.12549814687500 5.38386121250000 4.95731447500000 
 N -4.15183014687500 0.167997212500003 3.66748047500000 
 N -4.22450414687500 4.46521821250000 3.76334947500000 
 N -4.97496814687500 1.50342921250000 7.14833247500000 
 N -4.97422614687500 5.01697921250000 7.58526147500000 
 S -5.64872414687500 0.766749212500003 5.84170747500000 
 S -5.78845114687500 4.54695421250000 6.19791847500000 
 S -2.64065414687500 0.672142212500003 3.10145147500000 
 S -2.64360814687500 4.96947921250000 3.40353347500000 
 S -3.42992614687500 2.06350821250000 7.00000847500000 
 S -3.49891114687500 5.73835121250000 7.33930847500000 
