16

 C -3.10806053437500 1.62405020937500 5.53782343750000 
 C -3.07131753437500 5.04127820937500 5.54478843750000 
 C -4.42866853437500 1.54828320937500 4.98590843750000 
 C -4.30342653437500 4.71285320937500 4.88061243750000 
 N -2.16452453437500 1.72539220937500 4.61555443750000 
 N -2.07447953437500 5.34686720937500 4.71154643750000 
 N -4.51596753437500 1.62963020937500 3.67140543750000 
 N -4.27745653437500 4.83295420937500 3.55822543750000 
 N -4.80861653437500 1.56761520937500 7.48893843750000 
 N -4.78007853437500 4.46192020937500 7.44858243750000 
 S -5.71861253437500 1.47814520937500 6.12032943750000 
 S -5.61740853437500 4.33052920937500 6.02607643750000 
 S -2.93166653437500 1.61204220937500 3.09505743750000 
 S -2.72130953437500 5.17422120937500 3.17411743750000 
 S -3.13418253437500 1.65342820937500 7.28937743750000 
 S -3.14073653437500 4.91459220937500 7.23788443750000 
