16

 C -3.16065229375000 1.32005321249999 5.37340613750000 
 C -2.85503329375000 5.18813321249999 5.78520213750000 
 C -4.41395429375000 0.894202212499992 4.66824013750000 
 C -4.07223329375000 4.74860421249999 5.14038513750000 
 N -2.08349629375000 1.56993821249999 4.64194713750000 
 N -1.76609029375000 5.26960721249999 5.01873513750000 
 N -4.25042729375000 0.959009212499992 3.34949413750000 
 N -3.94872729375000 4.58658721249999 3.84365513750000 
 N -4.85752029375000 0.831812212499991 7.18979813750000 
 N -4.68402729375000 5.03398121249999 7.57828913750000 
 S -5.64449229375000 0.381197212499991 5.73833813750000 
 S -5.35542329375000 4.31168221249999 6.26452213750000 
 S -2.70793429375000 1.48938021249999 3.10667513750000 
 S -2.34830429375000 4.92305721249999 3.47084213750000 
 S -3.21133829375000 1.21536421249999 7.08437813750000 
 S -3.09467229375000 5.37390021249999 7.46768913750000 
