16

 C -2.93024002187500 1.53390463125000 5.33147075000000 
 C -3.12825902187500 5.30475763125000 5.49083475000000 
 C -4.13020902187500 0.938564631250001 4.77957875000000 
 C -4.26485002187500 4.61575563125000 4.87407975000000 
 N -1.98331302187500 1.81953263125000 4.46600475000000 
 N -2.06056502187500 5.41697463125000 4.74389375000000 
 N -4.08282302187500 0.740530631250001 3.47923575000000 
 N -4.02608402187500 4.14167463125000 3.64760975000000 
 N -4.56701602187500 1.03800963125000 7.33802675000000 
 N -4.93369402187500 4.85793663125000 7.28394175000000 
 S -5.29979202187500 0.500578631250001 5.93398475000000 
 S -5.60986302187500 4.42094163125000 5.89800575000000 
 S -2.46208902187500 1.16080363125000 3.00738175000000 
 S -2.41816202187500 4.61178463125000 3.32580775000000 
 S -3.02768002187500 1.74498263125000 7.12696475000000 
 S -3.33496002187500 5.42245263125000 7.27693575000000 
