16

 C -3.09726554687500 1.49256762812500 5.64270081562500 
 C -2.98958154687500 5.29929062812500 5.87468081562500 
 C -4.28722254687500 1.11098262812500 4.94995881562500 
 C -4.19504754687500 4.94130262812500 5.16481881562500 
 N -1.98445054687500 1.60949962812500 4.89142081562500 
 N -1.93591854687500 5.44687162812500 5.08657481562500 
 N -4.16584854687500 0.904974628125001 3.64898081562500 
 N -4.10316554687500 4.82342262812500 3.85169581562500 
 N -4.93723454687500 1.26145162812500 7.48610381562500 
 N -4.91871654687500 5.02734662812500 7.66810781562500 
 S -5.61535054687500 0.688546628125001 6.06964681562500 
 S -5.61186654687500 4.76710462812500 6.15752281562500 
 S -2.56760154687500 1.27668262812500 3.28668781562500 
 S -2.49098754687500 5.09341662812500 3.49047281562500 
 S -3.36595354687500 1.70981562812500 7.39301781562500 
 S -3.24779954687500 5.34436562812500 7.57995081562500 
