16

 C -3.12189195000000 1.51580870000000 5.61005680625000 
 C -2.93251395000000 5.34444670000000 5.41531480625000 
 C -4.36804095000000 0.988394700000001 5.06006880625000 
 C -4.16007295000000 4.88685570000000 4.84175080625000 
 N -2.17500995000000 1.63067970000000 4.69718980625000 
 N -1.94186695000000 5.59651270000000 4.53832680625000 
 N -4.30659695000000 0.600896700000001 3.80030080625000 
 N -4.12360195000000 4.75880970000000 3.51079080625000 
 N -4.59963095000000 1.16196870000000 7.65859680625000 
 N -4.54517795000000 4.90372970000000 7.31337780625000 
 S -5.57374595000000 0.788398700000000 6.30478480625000 
 S -5.45898595000000 4.65186570000000 5.96621880625000 
 S -2.80898595000000 1.12834370000000 3.21320380625000 
 S -2.64770595000000 5.23425570000000 2.98812180625000 
 S -3.03888895000000 1.61029670000000 7.29091780625000 
 S -2.98131895000000 5.40674770000000 7.22007780625000 
