16

 C -3.26655875625000 1.32827495937500 5.24525670937500 
 C -3.27133575625000 5.13003595937500 5.36069570937500 
 C -4.50278075625000 0.856546959375003 4.63854170937500 
 C -4.52117375625000 4.69935395937500 4.81741370937500 
 N -2.29388475625000 1.35833695937500 4.30971570937500 
 N -2.25693875625000 5.18166595937500 4.44291370937500 
 N -4.46850075625000 0.456627959375004 3.35839570937500 
 N -4.48753075625000 4.42052095937500 3.50267370937500 
 N -4.95659675625000 0.999187959375004 7.14319470937500 
 N -4.79734775625000 4.80661495937500 7.45249570937500 
 S -5.80705375625000 0.811635959375004 5.79652170937500 
 S -5.80398575625000 4.59592395937500 6.04260270937500 
 S -2.91402575625000 0.746470959375004 2.91826070937500 
 S -2.89494975625000 4.70800895937500 3.02487970937500 
 S -3.39812175625000 1.45104995937500 6.98363670937500 
 S -3.24005975625000 5.32463695937500 7.12244370937500 
