16

 C -3.51015674687500 1.11269741562500 5.59600634062500 
 C -2.99708774687500 5.05289741562500 5.46855634062500 
 C -4.62576474687500 0.524505415624997 4.92590734062500 
 C -4.17315974687500 4.50184441562500 4.83356734062500 
 N -2.48384374687500 1.36970241562500 4.79523734062500 
 N -1.94453574687500 5.20801641562500 4.65243934062500 
 N -4.51629574687500 0.485224415624997 3.61817534062500 
 N -4.01398674687500 4.27876241562500 3.52903434062500 
 N -5.31146474687500 0.660244415624997 7.48680634062500 
 N -4.68183574687500 4.81095541562500 7.40620334062500 
 S -6.03918874687500 0.234158415624997 6.01084834062500 
 S -5.51777574687500 4.37232041562500 6.02703034062500 
 S -2.85704174687500 0.865887415624997 3.23173734062500 
 S -2.45283974687500 4.69080141562500 3.13876034062500 
 S -3.75129874687500 1.18728941562500 7.32747034062500 
 S -3.13480674687500 5.36678841562500 7.15767334062500 
