16

 C -3.10400868437500 1.56092685312500 5.69497265312500 
 C -3.13807868437500 5.20118385312500 5.66131665312500 
 C -4.39058768437500 1.39910485312500 5.05966965312500 
 C -4.36321268437500 4.90122885312500 4.92827265312500 
 N -2.10240368437500 1.70938185312500 4.83074565312500 
 N -2.08214668437500 5.35383385312500 4.88629465312500 
 N -4.32887368437500 1.42374285312500 3.72495965312500 
 N -4.20375668437500 4.92058685312500 3.60598865312500 
 N -4.83217168437500 1.62226185312500 7.64303865312500 
 N -4.83115868437500 4.98890885312500 7.51848365312500 
 S -5.66215768437500 1.29761485312500 6.23903265312500 
 S -5.64809768437500 4.61617085312500 6.11533765312500 
 S -2.75857868437500 1.75975285312500 3.34365965312500 
 S -2.63151468437500 5.31489485312500 3.32107965312500 
 S -3.20681768437500 1.87416485312500 7.38623065312500 
 S -3.20499068437500 5.30556685312500 7.37041265312500 
