16

 C -3.31439717187500 0.863827443750004 5.46029447187500 
 C -3.26605717187500 5.20034944375000 5.48045847187500 
 C -4.52784217187500 0.600610443750003 4.75615547187500 
 C -4.40601017187500 4.65342244375000 4.77952247187500 
 N -2.26904817187500 1.13410444375000 4.71785247187500 
 N -2.20148317187500 5.42301444375000 4.67649747187500 
 N -4.33100917187500 0.642795443750003 3.45103847187500 
 N -4.29031517187500 4.57768544375000 3.45287947187500 
 N -5.12103717187500 0.745251443750004 7.21962147187500 
 N -5.04472617187500 4.53600444375000 7.23408947187500 
 S -5.90644717187500 0.571143443750004 5.78516347187500 
 S -5.71377017187500 4.01349744375000 5.78332247187500 
 S -2.76031417187500 0.917507443750003 3.12558247187500 
 S -2.81833217187500 5.10864944375000 3.08558447187500 
 S -3.50325217187500 0.919017443750004 7.17342647187500 
 S -3.58590017187500 5.38150544375000 7.20537747187500 
