16

 C -2.99572605000000 1.71134928750000 5.70171882187500 
 C -3.10671405000000 5.45618228750000 5.67776682187500 
 C -4.10236605000000 0.966614287500001 5.06564782187500 
 C -4.30406705000000 4.94717428750000 5.04593282187500 
 N -1.97626505000000 1.93392528750000 4.85294282187500 
 N -2.09166905000000 5.50706628750000 4.84062382187500 
 N -3.89719405000000 0.544057287500001 3.81519182187500 
 N -4.18075505000000 4.57029328750000 3.77171182187500 
 N -4.77412205000000 1.37055228750000 7.46410482187500 
 N -4.90379105000000 5.29282228750000 7.59539282187500 
 S -5.46091905000000 0.782539287500001 6.07572282187500 
 S -5.67046005000000 4.90485728750000 6.11320782187500 
 S -2.43600705000000 1.12790128750000 3.48398282187500 
 S -2.66614205000000 4.96099428750000 3.33942782187500 
 S -3.25126705000000 2.09778728750000 7.36343782187500 
 S -3.25417705000000 5.59998928750000 7.44180082187500 
