16

 C -3.19914206562500 1.15853689062500 5.41893530312500 
 C -3.05591806562500 5.28923789062500 5.60742430312500 
 C -4.32585606562500 0.489695890624998 4.79321530312500 
 C -4.25455606562500 4.83222689062500 4.99002930312500 
 N -2.12133606562500 1.29011489062500 4.67733530312500 
 N -1.98821406562500 5.35587089062500 4.77615830312500 
 N -4.04817306562500 4.678089062499780E-002 3.55138130312500 
 N -4.17089306562500 4.47916789062500 3.66980230312500 
 N -5.02085206562500 1.21386989062500 7.22136730312500 
 N -4.92759206562500 5.18980289062500 7.39908830312500 
 S -5.75071606562500 0.632936890624998 5.80345730312500 
 S -5.64374306562500 4.74129089062500 5.99987030312500 
 S -2.42546706562500 0.480989890624998 3.25688230312500 
 S -2.65399506562500 4.89879189062500 3.26900230312500 
 S -3.42173006562500 1.65454689062500 7.02837030312500 
 S -3.34033906562500 5.63752889062500 7.29112930312500 
