16

 C -3.03384153125001 1.39500850312500 5.47543803125000 
 C -3.42542653125001 5.11753850312500 5.41801103125000 
 C -4.32920953125001 1.01002850312500 4.93659303125000 
 C -4.65077053125001 4.53321250312500 4.82415803125000 
 N -2.07338853125001 1.32645850312500 4.56068503125000 
 N -2.45347253125001 5.45873650312500 4.58835203125000 
 N -4.41361353125001 0.738419503125003 3.68751003125000 
 N -4.49642653125001 4.38065450312500 3.50796803125000 
 N -4.85323253125001 1.13579750312500 7.40504003125000 
 N -4.96884753125001 4.53024050312500 7.39181903125000 
 S -5.71024953125001 0.924940503125002 6.01711303125000 
 S -5.86798653125001 4.17747550312500 5.97420203125000 
 S -2.87447353125001 1.05785150312500 3.05124003125000 
 S -2.95807453125001 5.01016850312500 3.10114403125000 
 S -3.26555353125001 1.61054550312500 7.25689103125000 
 S -3.43596953125001 5.20444550312500 7.10021503125000 
