16

 C -2.86792433125000 1.71005126562500 5.76954021250000 
 C -3.31997933125000 5.37491626562500 5.42938421250000 
 C -4.13904033125000 1.45566126562500 5.14684521250000 
 C -4.55889633125000 4.91111626562500 4.83796321250000 
 N -1.87963133125000 1.82142726562500 4.86620221250000 
 N -2.33429633125000 5.54459526562500 4.54593521250000 
 N -4.12112933125000 1.47141526562500 3.83184721250000 
 N -4.49517533125000 4.86686026562500 3.48834521250000 
 N -4.67119733125000 1.63543126562500 7.64592621250000 
 N -4.97173833125000 5.10250626562500 7.35391921250000 
 S -5.47544133125000 1.43469926562500 6.23622421250000 
 S -5.78082033125000 4.49168426562500 6.02247921250000 
 S -2.50637233125000 1.69075826562500 3.33701621250000 
 S -3.00641833125000 5.34690226562500 3.01379421250000 
 S -3.01460533125000 1.67722926562500 7.50945321250000 
 S -3.45475633125000 5.72159526562500 7.09904621250000 
