16

 C -2.98679548437500 1.37666684062500 5.50968804375000 
 C -3.16777048437500 5.07239084062500 5.53714304375000 
 C -4.25657948437500 1.27196084062500 4.85692504375000 
 C -4.36535048437500 4.62393984062500 4.92007204375000 
 N -1.95906648437500 1.30407584062500 4.67149304375000 
 N -2.16351748437500 5.17438684062500 4.72210004375000 
 N -4.18743348437500 1.02480184062500 3.56709104375000 
 N -4.25371548437500 4.28749484062500 3.64399304375000 
 N -4.81334248437500 1.53550784062500 7.32812504375000 
 N -5.02335348437500 5.18322884062500 7.32438404375000 
 S -5.61160048437500 1.50753584062500 5.86469004375000 
 S -5.75451348437500 4.60250684062500 5.92714004375000 
 S -2.55981348437500 1.11098184062500 3.16484004375000 
 S -2.71553648437500 4.67485584062500 3.20539904375000 
 S -3.12853148437500 1.61796084062500 7.19536104375000 
 S -3.39415848437500 5.42365784062500 7.23567304375000 
