16

 C -3.29565060937500 1.39349924687500 5.40586121562500 
 C -3.33950860937500 5.12937524687500 5.44607921562500 
 C -4.50067360937500 1.00389724687500 4.78055721562500 
 C -4.47683860937500 4.48686124687500 4.84429521562500 
 N -2.24134460937500 1.66940324687500 4.62372321562500 
 N -2.35181860937500 5.36972624687500 4.58010921562500 
 N -4.39244660937500 0.817092246875001 3.44000221562500 
 N -4.45723060937500 4.43991824687500 3.51553121562500 
 N -4.96275760937500 1.24728924687500 7.29671721562500 
 N -5.02557660937500 4.63383024687500 7.28028621562500 
 S -5.76746260937500 0.729103246875001 5.92485621562500 
 S -5.75604360937500 4.06348324687500 5.91893021562500 
 S -2.79449960937500 1.23901524687500 3.12553021562500 
 S -2.92065360937500 4.90323224687500 3.07096421562500 
 S -3.30351360937500 1.53925924687500 7.15590421562500 
 S -3.39873160937500 5.09204824687500 7.15068021562500 
