16

 C -3.03640090000000 1.56683127187500 5.66985927812500 
 C -3.02093590000000 5.29306127187500 5.83360527812500 
 C -4.29121490000000 1.05781327187500 4.99516727812500 
 C -4.24563290000000 4.94535627187500 5.16629827812500 
 N -1.96385990000000 1.56972627187500 4.88119427812500 
 N -1.91616290000000 5.34244527187500 5.07043027812500 
 N -4.13676690000000 0.888046271875000 3.67645527812500 
 N -4.09827590000000 4.86504427187500 3.84160027812500 
 N -4.95262790000000 1.32272727187500 7.45425527812500 
 N -4.89867690000000 5.07259827187500 7.64527827812500 
 S -5.59090290000000 0.687749271875000 6.03647227812500 
 S -5.64353690000000 4.76019527187500 6.19312127812500 
 S -2.59011490000000 1.26515727187500 3.36801027812500 
 S -2.52991490000000 5.12601827187500 3.49906327812500 
 S -3.33309990000000 1.79377727187500 7.42189127812500 
 S -3.27905590000000 5.39244727187500 7.53587327812500 
