16

 C -3.21807074687500 1.22744460312500 5.37036153750000 
 C -2.89543974687500 5.27291960312500 5.37615053750000 
 C -4.49902874687500 0.917779603124999 4.77736153750000 
 C -4.08348974687500 4.83614660312500 4.66305053750000 
 N -2.24648474687500 1.15506160312500 4.49087853750000 
 N -1.82412774687500 5.41226660312500 4.60006553750000 
 N -4.42402774687500 0.517975603125000 3.52593953750000 
 N -3.89711774687500 4.67699360312500 3.35401853750000 
 N -4.80549174687500 1.15158260312500 7.31910953750000 
 N -4.63524274687500 4.81334260312500 7.20325553750000 
 S -5.73395274687500 0.888727603124999 5.92581053750000 
 S -5.39427874687500 4.54197760312500 5.76184653750000 
 S -2.81953574687500 0.652731603124999 3.05266453750000 
 S -2.29053674687500 4.96056460312500 3.07226153750000 
 S -3.23246674687500 1.61072160312500 7.03078453750000 
 S -3.13083674687500 5.43826860312500 7.12258153750000 
