16

 C -3.14863649375000 1.53131978437500 5.29254045000000 
 C -3.27764649375000 5.31777378437500 5.79017945000000 
 C -4.27615949375000 0.825501784374996 4.75302445000000 
 C -4.39930249375000 4.72894378437500 5.08871545000000 
 N -2.09595849375000 1.67301578437500 4.51093845000000 
 N -2.17392049375000 5.54585278437500 5.00730145000000 
 N -4.03589249375000 0.306946784374996 3.57492545000000 
 N -4.19450049375000 4.52624378437500 3.76370045000000 
 N -4.86658849375000 1.41962678437500 7.18218745000000 
 N -5.07703749375001 5.10444278437500 7.60246745000000 
 S -5.64221849375001 0.816754784374996 5.84637045000000 
 S -5.73479349375001 4.60962478437500 6.14027445000000 
 S -2.51089249375000 0.893817784374995 3.04468545000000 
 S -2.65550949375000 5.00594778437500 3.49457145000000 
 S -3.30308749375000 1.96214378437500 6.97095645000000 
 S -3.48261149375000 5.59373078437500 7.45980845000000 
