16

 C -3.34259723125000 1.55395788125000 5.78687594375000 
 C -3.05351223125000 5.31349488125000 5.84657294375000 
 C -4.54907423125000 1.10711388125000 5.09796294375000 
 C -4.22927123125000 4.78787888125000 5.24003194375000 
 N -2.25544523125000 1.74920588125000 5.10315494375000 
 N -2.01868423125000 5.42304288125000 4.93250994375000 
 N -4.28925723125000 0.988914881250004 3.80831694375000 
 N -4.15140023125000 4.60380988125000 3.92658994375000 
 N -4.96292623125000 1.30578288125000 7.66287594375000 
 N -4.98094923125000 4.94139888125000 7.71630094375000 
 S -5.79994523125000 0.784681881250004 6.32431294375000 
 S -5.52742723125000 4.28789988125000 6.24836194375000 
 S -2.60706523125000 1.26191888125000 3.55200394375000 
 S -2.61941223125000 4.87188688125000 3.44332194375000 
 S -3.43090223125000 1.85676188125000 7.49494894375000 
 S -3.29798523125000 5.47640188125000 7.59029094375000 
