16

 C -3.11685056250000 1.03859105312500 5.57591298750000 
 C -3.52137056250000 5.02490305312500 5.12201698750000 
 C -4.41030956250000 0.679516053124996 4.93605698750000 
 C -4.57609456250000 4.27480505312500 4.54596798750000 
 N -2.17395156250000 1.35613205312500 4.72532798750000 
 N -2.55778056250000 5.25380005312500 4.24157998750000 
 N -4.32827256250000 0.600629053124996 3.61094398750000 
 N -4.46670456250000 3.92277305312500 3.26660698750000 
 N -4.80055456250000 0.763061053124996 7.52748698750000 
 N -5.29558656250000 4.80215705312500 7.01594798750000 
 S -5.71636856250000 0.574979053124996 6.13963998750000 
 S -5.86594556250000 3.90983905312500 5.63452998750000 
 S -2.80586556250000 1.10122205312500 3.24100298750000 
 S -2.99110756250000 4.55377705312500 2.84420798750000 
 S -3.12111456250000 1.10181705312500 7.34975898750000 
 S -3.67224756250000 5.19131105312500 6.87842998750000 
