16

 C -2.58731219687500 1.57854294375000 5.40129367187500 
 C -3.38237819687500 5.02085894375000 5.58402667187500 
 C -3.75039219687500 0.844090943750003 4.84913067187500 
 C -4.54787519687500 4.49046494375000 4.89165167187500 
 N -1.81814219687500 2.07401394375000 4.45280367187500 
 N -2.38611319687500 5.40186694375000 4.78304767187500 
 N -3.71081419687500 0.752189943750003 3.54338667187500 
 N -4.38488419687500 4.38029694375000 3.57542167187500 
 N -4.24355219687500 1.04581394375000 7.30666567187500 
 N -5.11891219687500 4.41009694375000 7.38777467187500 
 S -5.03252019687500 0.535124943750004 5.95010267187500 
 S -5.78553519687500 4.03491694375000 5.93559167187500 
 S -2.42379719687500 1.62537494375000 2.96567067187500 
 S -2.93169819687500 5.13633694375000 3.26609967187500 
 S -2.90122119687500 2.01112794375000 7.02200267187500 
 S -3.61041319687500 5.16378694375000 7.34258867187500 
