16

 C -3.26917830312500 1.37275341562500 5.48897417187500 
 C -3.04051930312500 5.29899741562500 5.72475317187500 
 C -4.38079930312500 0.946330415625002 4.75401817187500 
 C -4.29950030312500 5.12597341562500 5.04141717187500 
 N -2.21926130312500 1.66383441562500 4.73130217187500 
 N -1.97999830312500 5.46422841562500 4.94176117187500 
 N -4.21966030312500 0.881039415625001 3.43225917187500 
 N -4.15193530312500 4.91005041562500 3.73614217187500 
 N -5.08044930312500 0.999384415625001 7.22298417187500 
 N -5.02152630312500 5.15105941562500 7.56633817187500 
 S -5.72732230312500 0.449809415625001 5.75037517187500 
 S -5.75279030312500 5.05175841562500 6.06088317187500 
 S -2.68090030312500 1.46432841562500 3.21789617187500 
 S -2.56470630312500 5.21690741562500 3.39214317187500 
 S -3.53451730312500 1.48622641562500 7.19404617187500 
 S -3.35902430312500 5.57843741562500 7.41795417187500 
