16

 C -3.36464099062500 1.48571570312500 5.52006661250000 
 C -3.41877399062500 5.22337270312500 5.17382261250000 
 C -4.53553399062500 0.881077703124999 4.99217361250000 
 C -4.54888099062500 4.56593570312500 4.53357561250000 
 N -2.37087999062500 1.57604570312500 4.67026261250000 
 N -2.39276799062500 5.38074470312500 4.34973361250000 
 N -4.46670299062500 0.586262703125000 3.70854261250000 
 N -4.42131899062500 4.31196770312500 3.21514261250000 
 N -4.98476499062500 1.02435770312500 7.41079361250000 
 N -5.10816999062500 4.67112470312500 7.03496161250000 
 S -5.84375499062500 0.729432703124999 6.06402461250000 
 S -5.79710399062500 4.05425670312500 5.67445761250000 
 S -2.96822799062500 1.06394970312500 3.21716661250000 
 S -2.84785299062500 4.75122870312500 2.86878161250000 
 S -3.46084099062500 1.64522870312500 7.21489261250000 
 S -3.55524999062500 5.23209270312500 6.91096261250000 
