16

 C -3.05556627187500 1.40420131250000 5.31610981562500 
 C -3.31085327187500 4.92247931250000 5.48090981562500 
 C -4.24555927187500 0.874759312499999 4.80796981562500 
 C -4.50043327187500 4.44914831250000 4.83454381562500 
 N -2.06070227187500 1.62791131250000 4.44025281562500 
 N -2.32925727187500 5.28653731250000 4.66366581562500 
 N -4.25878827187500 0.811558312499999 3.48210781562500 
 N -4.38306427187500 4.33875831250000 3.50166481562500 
 N -4.79033427187500 1.08959431250000 7.33582181562500 
 N -5.01396427187500 4.55760531250000 7.42233181562500 
 S -5.60432327187500 0.750729312499999 5.94476281562500 
 S -5.73462627187500 4.07126031250000 6.00483681562500 
 S -2.78691227187500 1.32342131250000 2.94401381562500 
 S -2.90505127187500 5.05801731250000 3.13966481562500 
 S -3.25582227187500 1.65621631250000 7.07898381562500 
 S -3.43296527187500 5.03718131250000 7.24641981562500 
