16

 C -3.16847681562500 1.44160370312500 5.55222977500000 
 C -3.55548881562500 4.93090670312500 5.03794677500000 
 C -4.29757781562500 0.707331703125002 4.98006377500000 
 C -4.66096881562500 4.16418370312500 4.50002077500000 
 N -2.21572981562500 1.73371970312500 4.67720177500000 
 N -2.55951881562500 5.13308670312500 4.15709377500000 
 N -4.24157681562500 0.528824703125001 3.62106977500000 
 N -4.61783881562500 4.02443170312500 3.16859377500000 
 N -4.82984681562500 1.26956670312500 7.45557177500000 
 N -5.38259281562500 4.53533270312500 6.89275377500000 
 S -5.49844481562500 0.440441703125002 6.17696377500000 
 S -6.01678281562500 3.79576470312500 5.50679077500000 
 S -2.72572981562500 1.05472370312500 3.29810477500000 
 S -3.12342781562500 4.59798470312500 2.71095277500000 
 S -3.33264781562500 1.91261470312500 7.17133477500000 
 S -3.88470181562500 5.26504670312500 6.71479877500000 
