16

 C -3.43752486562500 1.52073436250000 5.54594528125000 
 C -3.05953886562500 5.12492236250000 5.41835828125000 
 C -4.41362586562500 0.669892362499996 4.95087428125000 
 C -4.24453486562500 4.75601436250000 4.67914928125000 
 N -2.44959686562500 1.83567836250000 4.67129728125000 
 N -1.95284886562500 5.16883136250000 4.71467828125000 
 N -4.15220986562500 0.246306362499997 3.70791928125000 
 N -3.97967786562500 4.47561536250000 3.41921428125000 
 N -5.25324786562500 0.851261362499996 7.34116328125000 
 N -4.87745986562500 5.01221436250000 7.23719628125000 
 S -5.83117386562500 0.268353362499997 5.82879528125000 
 S -5.65689586562500 4.98209736250000 5.78325628125000 
 S -2.75003586562500 0.960748362499996 3.30133628125000 
 S -2.31730586562500 4.72080736250000 3.21958228125000 
 S -3.87358686562500 1.75830836250000 7.22937928125000 
 S -3.29519486562500 5.48068936250000 7.04658628125000 
