16

 C -3.10599684062500 1.56965314687500 5.68816219687500 
 C -3.12954384062500 5.18700014687500 5.64672919687500 
 C -4.40862784062500 1.44520814687500 5.06086819687500 
 C -4.37188384062500 4.92740514687500 4.94324719687500 
 N -2.07671984062500 1.70421714687500 4.83587219687500 
 N -2.07355584062500 5.35721314687500 4.88619019687500 
 N -4.31922184062500 1.42125814687500 3.70351719687500 
 N -4.21259684062500 4.91375414687500 3.62136219687500 
 N -4.84277884062500 1.61006714687500 7.63959719687500 
 N -4.82447784062500 4.99138814687500 7.52584819687500 
 S -5.66287684062500 1.29960514687500 6.25809119687500 
 S -5.64908184062500 4.62480314687500 6.12902119687500 
 S -2.75505084062500 1.76218814687500 3.34708919687500 
 S -2.63264684062500 5.32241014687500 3.31596719687500 
 S -3.21507384062500 1.88088814687500 7.41232519687500 
 S -3.21344884062500 5.30615414687500 7.36070519687500 
