16

 C -3.56424116875000 1.50615886250000 5.31916185000000 
 C -3.31652016875000 5.03419486250000 5.78634385000000 
 C -4.65296416875000 0.974272862500001 4.58227585000000 
 C -4.52362916875000 4.60071986250000 5.14194485000000 
 N -2.45399016875000 1.82327686250000 4.65809085000000 
 N -2.30618516875000 5.10832386250000 4.94750785000000 
 N -4.42621816875000 0.975336862500002 3.20998285000000 
 N -4.52665316875000 4.54923986250000 3.80430785000000 
 N -5.22826716875000 0.872481862500002 7.11101085000000 
 N -5.07716016875000 4.96534786250000 7.62075485000000 
 S -5.98086316875000 0.659450862500002 5.65409085000000 
 S -5.86153116875000 4.58853386250000 6.20072485000000 
 S -2.89663616875000 1.59672086250000 3.06076985000000 
 S -2.85099416875000 4.81013986250000 3.44255085000000 
 S -3.79118616875000 1.66254586250000 7.07236185000000 
 S -3.40812616875000 5.16256686250000 7.51835385000000 
