16

 C -3.66086052187500 1.30231127812500 5.72795549062500 
 C -3.07772652187500 5.01115927812500 5.31965649062500 
 C -4.75579252187500 0.783810278125002 4.90376549062500 
 C -4.34240352187500 4.51531227812500 4.87294049062500 
 N -2.54039452187500 1.59284227812500 5.06295149062500 
 N -2.16378152187500 5.23823627812500 4.35324949062500 
 N -4.42990352187500 0.715369278125002 3.61329849062500 
 N -4.34563252187500 4.27291127812500 3.56003049062500 
 N -5.69353752187500 0.734563278125003 7.40331849062500 
 N -4.80907052187500 4.90860227812500 7.35758749062500 
 S -6.17624552187500 0.412727278125002 5.85007549062500 
 S -5.65436252187500 4.37652027812500 5.97891049062500 
 S -2.83444952187500 1.12053827812500 3.48558349062500 
 S -2.86094052187500 4.64379627812500 2.96131349062500 
 S -4.15761552187500 1.29279227812500 7.51332649062500 
 S -3.28248752187500 5.46999427812500 7.04441449062500 
