16

 C -3.24609605625000 1.31546943125000 5.54110954375000 
 C -3.24758005625000 5.12733543125000 5.29790154375000 
 C -4.53787005625000 1.11947843125000 4.86058854375000 
 C -4.46993905625000 4.67417043125000 4.74127254375000 
 N -2.18375305625000 1.23008143125000 4.74926454375000 
 N -2.20284005625000 5.02249143125000 4.46341154375000 
 N -4.43509805625000 1.00245243125000 3.53538454375000 
 N -4.39824805625000 4.25086343125000 3.51248254375000 
 N -5.09477905625000 1.27671343125000 7.34779454375000 
 N -4.98348105625000 4.94522943125000 7.20382954375000 
 S -5.93901105625000 1.11193743125000 5.91348454375000 
 S -5.79740705625000 4.49080143125000 5.79237354375000 
 S -2.75681205625000 0.954422431250002 3.25931854375000 
 S -2.80770905625000 4.43831643125000 3.05012054375000 
 S -3.43485805625000 1.39866843125000 7.25126054375000 
 S -3.46447405625000 5.49370243125000 6.99967054375000 
