16

 C -3.26577199375000 1.38185426875000 5.53502285312500 
 C -3.30173899375000 5.08610726875000 5.44637685312500 
 C -4.54702899375000 1.08825426875000 4.87442685312500 
 C -4.52796999375000 4.60921026875000 4.84447285312500 
 N -2.20992599375000 1.54625226875000 4.69563585312500 
 N -2.30103499375000 5.31876026875000 4.61716285312500 
 N -4.45070799375000 0.905940268750001 3.52713685312500 
 N -4.46239999375000 4.50518526875000 3.52777185312500 
 N -5.02423799375000 1.18446026875000 7.48189685312500 
 N -4.98460899375000 4.85123826875000 7.37511385312500 
 S -5.82555299375000 0.750481268750000 6.06726985312500 
 S -5.77313399375000 4.40292426875000 5.96453685312500 
 S -2.85413099375000 1.19358526875000 3.17771585312500 
 S -2.89899799375000 4.91300626875000 3.10004985312500 
 S -3.39449799375000 1.45653726875000 7.29975485312500 
 S -3.37933399375000 5.13146726875000 7.21525785312500 
