16

 C -3.06024523437500 1.54041040625000 5.66149157500000 
 C -3.39760223437500 4.86884440625000 5.59330757500000 
 C -4.25665923437500 1.15480340625000 4.98392157500000 
 C -4.53944023437500 4.43141040625000 4.77306357500000 
 N -1.94742123437500 1.60708040625001 4.91096957500000 
 N -2.26474623437500 4.99507640625000 4.92957557500000 
 N -4.09962523437500 0.968125406250004 3.66676957500000 
 N -4.20751023437500 4.31597540625001 3.47900657500000 
 N -5.10051323437500 1.11992840625001 7.42182457500000 
 N -5.22428823437500 4.77644240625000 7.23970357500000 
 S -5.69711523437500 0.937296406250005 5.82171157500000 
 S -5.91559723437500 4.20334240625000 5.80310757500000 
 S -2.48590923437500 1.26602140625000 3.31339557500000 
 S -2.52993623437500 4.68180740625000 3.37572757500000 
 S -3.46458523437500 1.59569140625000 7.42843757500000 
 S -3.61645423437500 5.04551340625000 7.25601857500000 
