16

 C -3.36484434375000 1.38803590937500 5.18456845625000 
 C -3.09633934375000 5.18730090937500 5.40016845625000 
 C -4.52433734375000 0.866971909375002 4.50818445625000 
 C -4.17868334375000 4.48793490937500 4.82475845625000 
 N -2.26364734375000 1.35425190937500 4.46437545625000 
 N -2.02125334375000 5.21113390937500 4.62455645625000 
 N -4.30277034375000 0.599001909375002 3.22721745625000 
 N -3.98460634375000 4.01971790937500 3.60535545625000 
 N -5.10527234375000 1.21010490937500 7.01150445625000 
 N -4.84005034375000 5.02953790937500 7.25860245625000 
 S -5.89528634375000 0.767260909375002 5.58515145625000 
 S -5.58943034375000 4.45306990937500 5.84558045625000 
 S -2.67667034375000 0.898089909375003 2.94734645625000 
 S -2.42803934375000 4.39284190937500 3.23267145625000 
 S -3.54966934375000 1.72974990937500 6.86806345625000 
 S -3.26533434375000 5.51562990937500 7.04806445625000 
