16

 C -3.16499948750000 1.36226539687500 5.49755276562500 
 C -3.14290748750000 5.19141239687500 5.52672676562500 
 C -4.28122348750000 0.772997396875005 4.85157976562500 
 C -4.23364448750000 4.58260839687501 4.87108776562500 
 N -2.11456648750000 1.68736839687500 4.69331676562500 
 N -2.03408248750000 5.37665039687500 4.82329776562500 
 N -4.12246148750000 0.619501396875004 3.53817076562500 
 N -4.02156348750000 4.44429739687500 3.54546076562500 
 N -4.94227748750000 0.886568396875005 7.30612876562500 
 N -5.20072348750000 5.11836339687501 7.13773176562500 
 S -5.63529548750000 0.366529396875005 5.83806076562500 
 S -5.63419748750000 4.22223739687500 5.81379476562500 
 S -2.64322748750000 1.31101039687500 3.20202176562500 
 S -2.44469848750000 4.89069239687500 3.28765276562500 
 S -3.38637748750000 1.52239639687500 7.16247776562500 
 S -3.59460548750000 5.59058339687500 7.20456876562500 
