16

 C -3.20434420312500 1.33834665000000 5.23276739062500 
 C -2.98744020312500 4.94733765000000 5.62013839062500 
 C -4.24812320312500 0.638054649999998 4.61836139062500 
 C -4.25045320312500 4.52634965000000 5.04598239062500 
 N -2.16175520312500 1.72103765000000 4.50991239062500 
 N -2.04408020312500 5.18014465000000 4.72110639062500 
 N -4.09049020312500 0.520128649999998 3.30249039062500 
 N -4.25927620312500 4.42205965000000 3.71635539062500 
 N -4.89631020312500 0.838585649999998 7.15246839062500 
 N -4.54527820312500 4.76491065000000 7.59687639062500 
 S -5.58280020312500 0.314887649999998 5.74182739062500 
 S -5.47923320312500 4.45109865000000 6.28480239062500 
 S -2.56873020312500 1.16827065000000 2.93241539062500 
 S -2.66648020312500 4.76248065000000 3.21114239062500 
 S -3.35820620312500 1.50286465000000 6.98405439062500 
 S -2.92294820312500 5.06019765000000 7.38514339062500 
