16

 C -3.27538226875000 1.15815990312499 5.46045532812500 
 C -3.25275226875000 5.25855190312499 5.10415632812500 
 C -4.42426326875000 0.644069903124994 4.76254532812500 
 C -4.25822426875000 4.43588590312499 4.45570232812500 
 N -2.22540426875000 1.40162690312499 4.68355432812500 
 N -2.32557426875000 5.79616090312499 4.33666132812500 
 N -4.31120726875000 0.614395903124994 3.45696632812500 
 N -4.03742826875000 4.29838490312499 3.14119232812500 
 N -5.17252926875000 0.843626903124994 7.21156632812500 
 N -4.90559326875000 4.38735990312499 6.96684132812500 
 S -5.79958226875000 0.231290903124994 5.78058532812500 
 S -5.53186826875000 3.84890690312499 5.48157932812500 
 S -2.76943226875000 1.06332390312499 3.11324932812500 
 S -2.74523126875000 5.24477890312499 2.81381532812500 
 S -3.60206126875000 1.36414890312499 7.14748632812500 
 S -3.47037826875000 5.25678490312499 6.86840332812500 
