16

 C -3.35067804687500 1.35485940937500 5.55737772187500 
 C -2.89094404687500 5.26244240937500 5.46097272187500 
 C -4.43010704687500 0.633418409375003 4.94502472187500 
 C -4.14956004687500 4.91741440937500 4.82985072187500 
 N -2.38428604687500 1.72841340937500 4.72695572187500 
 N -1.84899404687500 5.34638440937500 4.57886772187500 
 N -4.28962804687500 0.398258409375003 3.63843472187500 
 N -4.13978704687500 4.78969740937500 3.46208172187500 
 N -5.15635104687500 1.22344740937500 7.42602772187500 
 N -4.73448104687500 5.08104040937500 7.31354572187500 
 S -5.74473704687500 0.294877409375003 6.15184472187500 
 S -5.46166204687500 4.73779540937500 5.92068772187500 
 S -2.77892704687500 1.01331240937500 3.26676872187500 
 S -2.56505104687500 5.00752040937500 3.09050672187500 
 S -3.58505204687500 1.86353740937500 7.16144672187500 
 S -3.15545804687500 5.39650440937500 7.22024472187500 
