16

 C -2.97370192812500 1.41639159062501 5.50187738125000 
 C -3.16470292812500 5.07712459062501 5.55223338125000 
 C -4.24253292812500 1.28638459062501 4.83507638125000 
 C -4.35429292812500 4.61597059062501 4.92432838125000 
 N -1.93246092812500 1.30495459062501 4.65883938125000 
 N -2.16837892812500 5.19839059062501 4.69219138125000 
 N -4.19808992812500 1.04565659062501 3.53229538125000 
 N -4.24970292812500 4.28083659062501 3.64833238125000 
 N -4.79311492812500 1.54935359062501 7.32880338125000 
 N -5.03148292812500 5.17629659062501 7.32016138125000 
 S -5.60649892812500 1.49996659062501 5.87183838125000 
 S -5.75379492812500 4.61390959062501 5.91374838125000 
 S -2.54905192812500 1.12725359062501 3.17912038125000 
 S -2.70164992812500 4.68668759062501 3.20787938125000 
 S -3.11061192812500 1.63952259062501 7.18716238125000 
 S -3.38085792812500 5.41097059062501 7.25737538125000 
