16

 C -2.94610751250000 1.50858734375000 5.45220750312500 
 C -3.14467451250000 5.10327534375000 5.56505450312500 
 C -4.23001451250000 1.32440534375000 4.78892450312500 
 C -4.34963251250000 4.58605934375000 4.92538450312500 
 N -1.87383851250000 1.33188934375000 4.66513450312500 
 N -2.15263551250000 5.26805734375000 4.64291350312500 
 N -4.18422951250000 1.11749034375000 3.44974850312500 
 N -4.23692851250000 4.27305534375000 3.63819250312500 
 N -4.73233751250000 1.58563834375000 7.32339250312500 
 N -5.05050551250000 5.14742334375000 7.30595050312500 
 S -5.59019951250000 1.47605134375000 5.89739950312500 
 S -5.75679251250000 4.64227034375000 5.89057650312500 
 S -2.52975851250000 1.16077334375000 3.18862950312500 
 S -2.66789051250000 4.71355534375000 3.21536650312500 
 S -3.07383051250000 1.70210934375000 7.17673350312500 
 S -3.34900051250000 5.37592234375000 7.30454150312500 
