16

 C -3.14437887500000 1.46837795312500 5.47252087187500 
 C -3.29926687500000 5.06617995312500 5.39934287187500 
 C -4.29729887500000 0.838337953125002 4.81968887187500 
 C -4.54723387500000 4.64199295312500 4.82707687187500 
 N -2.06513887500000 1.53321895312500 4.69378987187500 
 N -2.30684487500000 5.08449095312500 4.52178887187500 
 N -3.99774587500000 0.459569953125002 3.57166487187500 
 N -4.45924187500000 4.28829195312500 3.54884287187500 
 N -4.96297787500000 1.41940695312500 7.23258687187500 
 N -4.96397687500000 5.28429895312500 7.32128087187500 
 S -5.66923287500000 0.752798953125001 5.88500587187500 
 S -5.79775887500000 4.59577095312500 6.03509387187500 
 S -2.48827987500000 1.01078295312500 3.23352487187500 
 S -2.89746987500000 4.62362995312500 3.07558087187500 
 S -3.37863687500000 1.89216895312500 7.08748787187500 
 S -3.33893087500000 5.65431995312500 7.07881587187500 
