16

 C -3.29834494375000 1.05493073750000 5.68019868125000 
 C -2.93448094375000 5.03588173750000 5.46635168125000 
 C -4.42899194375000 0.539674737499998 4.95417368125000 
 C -4.07044794375000 4.45413173750000 4.81767868125000 
 N -2.18977794375000 1.23452173750000 4.90579168125000 
 N -1.89460994375000 5.31706873750000 4.69037668125000 
 N -4.13746994375000 0.377181737499998 3.63663868125000 
 N -3.87982094375000 4.26811573750000 3.51656368125000 
 N -5.18266794375000 0.769545737499998 7.41534568125000 
 N -4.68587194375000 4.75932173750000 7.30485168125000 
 S -5.82238694375000 0.351723737499998 5.99124368125000 
 S -5.51845394375000 4.33856773750000 5.91451568125000 
 S -2.62642894375000 0.937384737499998 3.34287568125000 
 S -2.36348994375000 4.88303073750000 3.15862468125000 
 S -3.56020194375000 0.988002737499998 7.36229468125000 
 S -3.09895494375000 5.16899973750000 7.19039268125000 
