16

 C -3.28789766562500 1.43562689375000 5.59089154062500 
 C -3.35102666562500 5.10771589375000 5.28394854062500 
 C -4.59103966562500 1.08636589375000 4.90761654062500 
 C -4.54989366562500 4.60066489375000 4.65619754062500 
 N -2.25668966562500 1.58133189375000 4.77532754062500 
 N -2.33638466562500 5.32106189375000 4.48179754062500 
 N -4.41778166562500 0.861673893750001 3.64003454062500 
 N -4.39631266562500 4.33526789375000 3.37194754062500 
 N -5.18348066562500 1.09640189375000 7.44474054062500 
 N -5.02724466562500 4.64450689375000 7.22402354062500 
 S -5.89776266562500 0.744307893750001 6.00233954062500 
 S -5.75309466562500 4.25859489375000 5.82066654062500 
 S -2.81367566562500 1.17688989375000 3.24286754062500 
 S -2.86098966562500 4.87939289375000 2.94571354062500 
 S -3.57941166562500 1.45532289375000 7.28985554062500 
 S -3.46265266562500 5.25206689375000 7.03497254062500 
