16

 C -3.04494440625000 1.76969640937500 5.48790235625000 
 C -3.59085940625000 5.28153940937500 5.49567135625000 
 C -4.13975840625000 1.13813040937500 4.79489035625000 
 C -4.66629940625000 4.46291640937500 4.94907335625000 
 N -2.02216140625000 2.08259940937500 4.68219935625000 
 N -2.58811340625000 5.52186740937500 4.64808835625000 
 N -3.90757540625000 0.887698409374999 3.50449035625000 
 N -4.52669940625000 4.24185940937500 3.63650335625000 
 N -4.67958440625000 0.896356409374999 7.27159035625000 
 N -5.23459840625000 4.63802240937500 7.45084035625000 
 S -5.41706340625000 0.582859409374999 5.80423535625000 
 S -5.94064140625000 4.01714140937500 6.08968735625000 
 S -2.40007440625000 1.49903940937500 3.15916435625000 
 S -3.06954640625000 4.94502540937500 3.18693235625000 
 S -3.31714340625000 1.85444440937500 7.17349935625000 
 S -3.82235440625000 5.49949640937500 7.23091835625000 
