16

 C -2.85987223437500 1.96994695000000 5.56474594687500 
 C -3.19836423437500 5.47776695000000 5.30577394687500 
 C -4.13790923437500 1.65700995000000 4.95481494687500 
 C -4.32095623437500 4.83889495000000 4.66390394687500 
 N -1.88017023437500 2.16836695000000 4.68107794687500 
 N -2.23667923437500 5.83695995000000 4.45811494687500 
 N -4.12097023437500 1.58495695000000 3.61306294687500 
 N -4.12405823437500 4.61878195000000 3.38436094687500 
 N -4.60153023437500 1.63303295000000 7.45362494687500 
 N -4.92026923437500 5.02622095000000 7.17551994687500 
 S -5.45858223437500 1.41440995000000 6.05560894687500 
 S -5.61733123437500 4.59305295000000 5.74405894687500 
 S -2.49059523437500 1.85090195000000 3.19737194687500 
 S -2.67152523437500 5.28525695000000 2.96824894687500 
 S -3.07861523437500 2.18688895000000 7.29096894687500 
 S -3.32496423437500 5.35450195000000 7.01621294687500 
