16

 C -3.34110617812500 1.53216500312500 5.58223465312500 
 C -3.06017117812500 5.17836100312500 5.68562465312500 
 C -4.55744417812500 1.20496300312500 4.91899065312500 
 C -4.37871717812500 4.97904300312500 5.14163165312500 
 N -2.37485117812500 1.72199900312500 4.70101865312500 
 N -2.07439617812500 5.15876800312500 4.79789065312500 
 N -4.54193017812500 1.21112800312500 3.60489265312500 
 N -4.32410117812500 4.84362700312500 3.78920165312500 
 N -5.25737617812500 1.44732200312500 7.35204865312500 
 N -4.63347317812500 5.28964400312500 7.72885965312500 
 S -5.94532317812500 0.915321003124999 5.93666965312500 
 S -5.57852917812500 4.95712400312500 6.36098565312500 
 S -3.00221117812500 1.52516100312500 3.18367065312500 
 S -2.73548417812500 4.99472100312500 3.32212265312500 
 S -3.62388017812500 1.77095900312500 7.30959065312500 
 S -3.00634617812500 5.27386200312500 7.35942265312500 
