16

 C -3.10902195625000 1.47595108437500 5.64449453750000 
 C -2.98691995625000 5.29375308437500 5.87603553750000 
 C -4.28608795625000 1.11593508437500 4.95554853750000 
 C -4.19407095625000 4.94053508437500 5.15948153750000 
 N -2.00443895625000 1.61877208437500 4.88800653750000 
 N -1.94347095625000 5.46776408437500 5.08290253750000 
 N -4.16878695625000 0.911051084374999 3.64244953750000 
 N -4.10006995625000 4.81225908437500 3.85657453750000 
 N -4.93752695625000 1.24496408437500 7.49004653750000 
 N -4.91629295625000 5.01731508437500 7.66628053750000 
 S -5.61860695625000 0.690468084374999 6.07528453750000 
 S -5.60410495625000 4.76931208437500 6.15228553750000 
 S -2.55998595625000 1.27884208437500 3.27234253750000 
 S -2.48139195625000 5.08834708437500 3.49341153750000 
 S -3.36897995625000 1.69297308437500 7.38332453750000 
 S -3.24195995625000 5.33661608437500 7.59390953750000 
