16

 C -3.07967844062500 1.50175056875000 5.30632193125000 
 C -3.23339344062500 5.21796156875000 5.72210393125000 
 C -4.20890944062500 0.710954568749997 4.86318793125000 
 C -4.43379144062500 4.68608956875000 5.07903093125000 
 N -2.12315244062500 1.64139556875000 4.39657393125000 
 N -2.15904344062500 5.40338856875000 4.94451293125000 
 N -4.12213644062500 0.167367568749996 3.65724193125000 
 N -4.21279744062500 4.46600356875000 3.77356693125000 
 N -4.96740644062500 1.45305256875000 7.17249893125000 
 N -4.95294644062500 5.01848356875000 7.56698093125000 
 S -5.63289344062500 0.801302568749996 5.80872893125000 
 S -5.84628944062500 4.55723156875000 6.20364293125000 
 S -2.65036544062500 0.730382568749996 3.10318893125000 
 S -2.59504344062500 5.01280856875000 3.42664893125000 
 S -3.40367344062500 2.05349556875000 7.02228293125000 
 S -3.47263644062500 5.72492256875000 7.34771693125000 
