16

 C -3.14580776562500 1.34375951250000 5.50152112187500 
 C -3.10842276562500 4.91804451250000 5.68820112187500 
 C -4.40708176562500 0.953515512500002 4.97859512187500 
 C -4.34333076562500 4.44955551250000 5.09214412187500 
 N -2.19611376562500 1.55682451250000 4.61773412187500 
 N -2.16498376562500 5.25548351250000 4.79473212187500 
 N -4.42321776562500 0.712601512500002 3.66103912187500 
 N -4.18475776562500 4.16002151250000 3.80702012187500 
 N -4.93526076562500 1.37783151250000 7.43505512187500 
 N -4.94000976562500 4.73669051250000 7.60120612187500 
 S -5.74328576562500 0.923720512500002 6.13691112187500 
 S -5.70520676562500 4.21366051250000 6.18341012187500 
 S -2.89327076562500 1.03778051250000 3.18045712187500 
 S -2.70590376562500 4.69924551250000 3.29959612187500 
 S -3.33240376562500 1.72816151250000 7.19475412187500 
 S -3.35732276562500 5.30568951250000 7.42964212187500 
