16

 C -3.11074094375000 1.48172415937500 5.31355380937500 
 C -3.17064294375000 5.45171215937500 5.86543580937500 
 C -4.25333994375000 0.927147159375001 4.69659480937500 
 C -4.37761094375000 4.93676115937500 5.19742680937500 
 N -2.04225494375000 1.66707415937500 4.54226180937500 
 N -2.14627994375000 5.58945915937500 5.04631480937500 
 N -4.00676394375000 0.675165159375000 3.39953780937500 
 N -4.14922094375000 4.62901115937500 3.93630380937500 
 N -4.84614594375000 1.43106815937500 7.20825980937500 
 N -5.12433194375000 5.14839215937500 7.59373880937500 
 S -5.57229394375000 0.749899159375000 5.83780380937500 
 S -5.79507994375000 4.64409515937500 6.14462580937500 
 S -2.44743994375000 1.00435115937500 3.05006580937500 
 S -2.63843094375000 5.01468215937500 3.48696180937500 
 S -3.23792394375000 1.86742815937500 6.98029880937500 
 S -3.48816394375000 5.49253415937500 7.61891380937500 
