16

 C -3.03480516250000 1.43129947187500 5.50903866875000 
 C -3.02764416250000 4.94071547187500 5.28730166875000 
 C -4.21898716250000 0.938043471875000 4.87069266875000 
 C -4.28389716250000 4.73663747187500 4.65236266875000 
 N -1.99907216250000 1.51858047187500 4.71272466875000 
 N -1.99162816250000 4.68824147187500 4.47124466875000 
 N -4.10750416250000 0.726311471875000 3.53563566875000 
 N -4.29346716250000 4.58664247187500 3.29994466875000 
 N -4.81097416250000 1.31750847187500 7.36695766875000 
 N -4.68969616250000 5.25931647187500 7.19422266875000 
 S -5.61481316250000 0.923663471875001 5.97146466875000 
 S -5.58462316250000 4.87828147187500 5.79151866875000 
 S -2.44210616250000 1.05256747187500 3.23385566875000 
 S -2.62963716250000 4.57515347187500 2.95262866875000 
 S -3.28261616250000 1.84291547187500 7.18648266875000 
 S -3.00444516250000 5.32164647187500 6.94919466875000 
