16

 C -3.34757201875000 1.55862117187500 5.42325292500000 
 C -3.05863401875000 5.52825717187500 5.62811292500000 
 C -4.51638801875000 0.987618171874998 4.78158592500000 
 C -4.23755701875000 5.01312617187500 5.00043192500000 
 N -2.32177701875000 1.83405917187500 4.68546992500000 
 N -2.13898201875000 6.00857317187500 4.76664792500000 
 N -4.24211801875000 0.647364171874998 3.53120192500000 
 N -4.06799301875000 4.76561417187500 3.69367392500000 
 N -5.18086401875000 1.18055917187500 7.26496492500000 
 N -4.84203801875000 5.10693217187500 7.50384292500000 
 S -5.93891101875000 0.740781171874999 5.82483592500000 
 S -5.56898301875000 4.57617917187500 6.09760492500000 
 S -2.66002801875000 1.01968117187500 3.21829492500000 
 S -2.67079001875000 5.53500617187500 3.26043292500000 
 S -3.62175901875000 1.74896917187500 7.15791992500000 
 S -3.19558101875000 5.65530317187500 7.31536592500000 
