16

 C -3.30340166562500 1.42136093749999 5.77059339375000 
 C -2.90918466562500 4.96972793749999 5.61345039375000 
 C -4.60320066562500 1.00017893749999 5.31470839375000 
 C -4.15408266562500 4.59281093749999 4.98426739375000 
 N -2.25651266562500 1.36065193749999 4.96451239375000 
 N -1.92012166562500 5.13097593750000 4.75938739375000 
 N -4.45293366562500 0.562484937499995 4.02415339375000 
 N -4.09973866562500 4.55339993749999 3.67362739375000 
 N -4.75683366562500 1.52534793749999 7.85167139375000 
 N -4.83813166562500 4.73168593749999 7.42756139375000 
 S -5.79014166562500 1.15596393749999 6.57507839375000 
 S -5.50916866562500 4.40513593750000 5.94785339375000 
 S -2.90448366562500 0.909872937499994 3.52557939375000 
 S -2.58122466562500 4.88435293749999 3.21108139375000 
 S -3.13509166562500 1.69569093749999 7.41516439375000 
 S -3.17623166562500 5.00427993749999 7.41475739375000 
