16

 C -2.95652070312500 1.78536674375000 5.64070632812500 
 C -3.11059470312500 5.37706574375000 5.62051332812500 
 C -4.08525770312500 1.07863274375000 5.05838932812500 
 C -4.32529270312500 4.86091974375000 5.02231332812500 
 N -1.94440570312500 1.96542674375000 4.81088632812500 
 N -2.12947270312500 5.64714374375000 4.77404632812500 
 N -3.87735370312500 0.637394743750001 3.81043332812500 
 N -4.19753870312500 4.51795474375000 3.73843332812500 
 N -4.76245870312500 1.40288774375000 7.55582232812500 
 N -4.83191670312500 5.31875674375000 7.48088532812500 
 S -5.43413570312500 0.774867743750001 6.13256032812500 
 S -5.68695670312500 4.97685174375000 6.12390532812500 
 S -2.37184070312500 1.10532174375000 3.33842532812500 
 S -2.59176870312500 4.95424374375000 3.32862832812500 
 S -3.27861970312500 2.11344874375000 7.33376532812500 
 S -3.24504370312500 5.64536074375000 7.28613832812500 
