16

 C -3.03471895937500 1.63861091562500 5.59029871250000 
 C -3.01282495937500 5.28878791562500 5.67175671250000 
 C -4.31189095937500 1.37372791562500 5.01218871250000 
 C -4.21879595937500 4.89805591562500 5.00434371250000 
 N -2.10704595937500 1.81552091562500 4.63793971250000 
 N -1.98953695937500 5.51341091562500 4.83710271250000 
 N -4.32710495937500 1.17632491562500 3.67860971250000 
 N -4.11095095937500 4.77642691562500 3.70368871250000 
 N -4.69412095937500 1.46770891562500 7.54783871250000 
 N -4.90862695937500 4.84198391562500 7.45365171250000 
 S -5.60557695937500 1.29028191562500 6.14701571250000 
 S -5.61247595937500 4.57471991562500 5.99546971250000 
 S -2.80220695937500 1.61437491562500 3.15852971250000 
 S -2.60921195937500 5.15956191562500 3.29139271250000 
 S -3.07707595937500 1.74106691562500 7.34732171250000 
 S -3.31500195937500 5.25825191562500 7.40134971250000 
