16

 C -3.00399594062500 1.25470199687500 5.49209970000000 
 C -2.95254494062500 5.14770999687500 5.66575470000000 
 C -4.22418394062500 0.920907996875004 4.82667070000000 
 C -4.21520194062500 4.80347099687500 5.00351570000000 
 N -1.89691494062500 1.32217499687500 4.74061170000000 
 N -1.98066294062500 5.25854799687500 4.79757470000000 
 N -4.06852894062500 0.732325996875003 3.48556470000000 
 N -4.10542094062500 4.56805099687500 3.70305070000000 
 N -4.82968994062500 1.30648999687500 7.30593270000000 
 N -4.86438794062500 5.11983099687500 7.41213370000000 
 S -5.62719994062500 1.04218699687500 5.84941570000000 
 S -5.60919794062500 4.80689699687500 5.96676370000000 
 S -2.38933694062500 0.856933996875004 3.21607870000000 
 S -2.50664494062500 4.93848899687500 3.27173770000000 
 S -3.18656394062500 1.64266799687500 7.19805670000000 
 S -3.20135394062500 5.45476399687500 7.44051170000000 
