16

 C -3.38218575625000 1.52751625312500 5.47947974375000 
 C -3.06250175625000 5.37177925312500 5.62916574375000 
 C -4.52433175625000 0.993352253125000 4.72702474375000 
 C -4.32142075625000 4.96472125312500 5.01490674374999 
 N -2.23143575625000 1.65567825312500 4.73703474375000 
 N -2.12359975625000 5.63544425312500 4.75054974375000 
 N -4.25544075625000 0.713791253125000 3.43450574375000 
 N -4.32495875625000 4.89371125312500 3.69715374375000 
 N -5.32200775625000 1.40445725312500 7.19157074375000 
 N -4.81987275625000 5.09036825312500 7.52485074375000 
 S -5.83193775625000 0.735551253124999 5.73818574375000 
 S -5.56335475625000 4.64384325312500 6.14363574375000 
 S -2.78354075625000 1.33293825312500 3.16681174375000 
 S -2.73613575625000 5.36353425312500 3.23835174375000 
 S -3.77855875625000 2.00376825312500 7.12798174375000 
 S -3.21942375625000 5.54855325312500 7.39617074374999 
