16

 C -3.50748262187500 1.78566770937500 5.54822020937500 
 C -2.89790062187500 5.16907170937500 5.58177920937500 
 C -4.67581462187500 1.26155870937500 4.92815320937500 
 C -4.21555262187500 4.92995270937500 5.05129020937500 
 N -2.47560962187500 2.06701270937500 4.81535020937500 
 N -1.94405462187500 5.22844570937500 4.64137520937500 
 N -4.44783862187500 1.05539970937500 3.64895720937500 
 N -4.23984462187500 4.82110370937500 3.71132120937500 
 N -5.16584262187500 1.35213470937500 7.44553520937500 
 N -4.70016562187500 4.95225170937500 7.52886620937500 
 S -6.00282262187500 1.15060970937500 6.04895720937500 
 S -5.55269762187500 4.90100770937500 6.09139620937500 
 S -2.82450062187500 1.42191170937500 3.32619320937500 
 S -2.73214262187500 4.94075170937500 3.13388220937500 
 S -3.56956462187500 1.81255070937500 7.24847220937500 
 S -2.97337762187500 5.29007270937500 7.32049520937500 
