16

 C -3.10710108125000 1.53416699062500 5.32126344062500 
 C -3.27307508125000 5.20980999062500 5.75633644062500 
 C -4.20257008125000 0.759548990624999 4.82703344062500 
 C -4.44854608125000 4.68480499062500 5.09010844062500 
 N -2.12477308125000 1.63205499062500 4.40409944062500 
 N -2.20076208125000 5.43060499062500 4.95746144062500 
 N -4.04876008125000 0.187754990624999 3.63861744062500 
 N -4.18951708125000 4.48627899062500 3.78938144062500 
 N -4.94637308125000 1.43591099062500 7.20606644062500 
 N -4.97667508125000 5.02750399062500 7.56310244062500 
 S -5.62956808125000 0.815692990624998 5.79593444062500 
 S -5.84641008125000 4.57008599062500 6.19562944062500 
 S -2.64622108125000 0.773085990624999 3.08677644062500 
 S -2.58557108125000 5.02603199062500 3.43995244062500 
 S -3.37816208125000 2.03375399062500 7.01579844062500 
 S -3.45474508125000 5.70322999062500 7.35956144062500 
