16

 C -2.95104006875000 1.24406614687500 5.57418772187500 
 C -2.97534806875000 5.20792814687500 5.53108072187500 
 C -4.14560206875000 0.974633146874998 4.84571572187500 
 C -4.24247106875000 4.94116914687500 4.85627272187500 
 N -1.83546206875000 1.18250614687500 4.84665872187500 
 N -1.93992506875000 5.20916314687500 4.74521372187500 
 N -3.97199106875000 0.832851146874999 3.51064872187500 
 N -4.05938806875000 4.68552314687500 3.57212072187500 
 N -4.94142406875000 1.33118914687500 7.20937772187500 
 N -4.74395906875000 5.26329314687500 7.33337072187500 
 S -5.62708206875000 0.746224146874999 5.77522472187500 
 S -5.62860806875000 4.86070314687500 5.96240972187500 
 S -2.31806706875000 1.03050414687500 3.23282672187500 
 S -2.42401506875000 4.87178914687500 3.16835872187500 
 S -3.28471806875000 1.53285714687500 7.23743372187500 
 S -3.10860806875000 5.47905814687500 7.21400972187500 
