16

 C -3.30670924375000 1.40980509375000 5.48359285312500 
 C -3.09324824375000 5.38990009375000 5.77768785312500 
 C -4.42860324375000 0.820563093750001 4.73017185312500 
 C -4.28840324375000 5.03737609375000 5.05317085312500 
 N -2.23095724375000 1.63156909375000 4.71971285312500 
 N -2.02239924375000 5.49659209375000 4.96380685312500 
 N -4.25245224375000 0.755152093750001 3.42896985312500 
 N -4.16676224375000 5.01666109375000 3.72184785312500 
 N -5.19596524375000 1.11797809375000 7.18997185312500 
 N -5.04927624375000 5.21626809375000 7.45748485312500 
 S -5.68823124375000 0.413438093750001 5.77316185312500 
 S -5.77384124375000 5.06051309375000 5.98575185312500 
 S -2.72812124375000 1.34628809375000 3.11909185312500 
 S -2.54471724375000 5.25991309375000 3.37872385312500 
 S -3.52227424375000 1.47175709375000 7.20012485312500 
 S -3.40505024375000 5.56457509375000 7.53371685312500 
