16

 C -3.48145138437500 1.42691481250000 5.52994525937500 
 C -3.09494738437500 5.13000781250000 5.41940625937500 
 C -4.47092038437500 0.575195812500001 4.89872025937500 
 C -4.27376238437500 4.78998681250000 4.67651425937500 
 N -2.47655038437500 1.80158981250000 4.76117525937500 
 N -1.93502638437500 5.13947681250000 4.74563525937500 
 N -4.19432538437500 0.313796812500001 3.62026225937500 
 N -3.96980138437500 4.45636081250000 3.37336625937500 
 N -5.30366938437500 0.865959812500002 7.22578925937500 
 N -4.97923838437500 5.11977181250000 7.18905925937500 
 S -5.87411238437500 0.240387812500002 5.85197025937500 
 S -5.68570138437500 4.94739281250000 5.68280625937500 
 S -2.68279938437500 0.977722812500001 3.26440225937500 
 S -2.34643338437500 4.61585681250000 3.16658125937500 
 S -3.87749738437500 1.74124281250000 7.23776625937500 
 S -3.31100738437500 5.50977881250000 7.09884825937500 
