16

 C -3.13081014062500 1.49819417187500 5.71762212187500 
 C -3.00685614062500 4.62046817187500 5.47596512187500 
 C -4.39309314062500 1.14682117187500 5.09452312187500 
 C -4.24780714062500 4.21373817187500 4.86813712187500 
 N -2.12057614062500 1.63559917187500 4.86616212187500 
 N -2.00214514062500 4.79214217187500 4.57948312187500 
 N -4.22644014062500 0.862881171874996 3.81416112187500 
 N -4.12701514062500 3.92933417187500 3.58361212187500 
 N -4.79365014062500 1.43140017187500 7.61578212187500 
 N -4.89812114062500 4.48683917187500 7.35469012187500 
 S -5.66894214062500 1.12895717187500 6.22828412187500 
 S -5.60053914062500 4.14767617187500 5.89781412187500 
 S -2.61643314062500 1.19493817187500 3.38096812187500 
 S -2.62223714062500 4.31155817187500 3.08038812187500 
 S -3.19625614062500 1.70903617187500 7.42567712187500 
 S -3.26856214062500 4.62120817187500 7.22711312187500 
