16

 C -2.79065107187500 1.70664216875000 5.39141646562500 
 C -3.43298007187500 5.13120516875000 5.56277846562500 
 C -3.84993907187500 0.887971168750000 4.75633446562500 
 C -4.51735007187500 4.37080716875000 4.94101046562500 
 N -1.87843507187500 2.10269016875000 4.54680646562500 
 N -2.43292007187500 5.53122416875000 4.75295046562500 
 N -3.70254307187500 0.809507168750000 3.44040346562500 
 N -4.38501307187500 4.40372116875000 3.63133346562500 
 N -4.41678407187500 1.14153716875000 7.31833546562500 
 N -5.23186207187500 4.62207416875000 7.42875146562500 
 S -5.07215407187500 0.461396168750000 5.96525446562500 
 S -5.86353207187500 3.95991616875000 5.99425446562500 
 S -2.31339507187500 1.63979616875000 3.00567946562500 
 S -2.96116707187500 5.10216616875000 3.17677446562500 
 S -3.00771507187500 1.97665816875000 7.08430946562500 
 S -3.73085307187500 5.24142116875000 7.30101246562500 
