16

 C -3.01183400000000 1.86226331875000 5.45941831250000 
 C -3.64835500000000 5.32321031875000 5.52686731250000 
 C -4.09992300000000 1.14359031875000 4.81681631250000 
 C -4.65585500000000 4.47028631875000 4.90887531250000 
 N -2.02307100000000 2.12983031875000 4.65378931250000 
 N -2.61975700000000 5.50864131875000 4.69448031250000 
 N -3.87882800000000 0.933896318750000 3.56723331250000 
 N -4.49947700000000 4.23214431875000 3.60580231250000 
 N -4.66035900000000 0.944261318750000 7.25534331250000 
 N -5.26368900000000 4.67917531875000 7.42846731250000 
 S -5.33881200000000 0.534132318750000 5.79495631250000 
 S -5.91124900000000 3.98121331875000 6.06251531250000 
 S -2.37347200000000 1.47885931875000 3.15634631250000 
 S -3.06380600000000 4.96912831875000 3.21123531250000 
 S -3.26363200000000 1.85224131875000 7.15042131250000 
 S -3.78960700000000 5.48204231875000 7.23692731250000 
