16

 C -2.98484932187500 1.50241169375000 5.23828018750000 
 C -3.31368532187500 5.18638569375000 5.46333118750000 
 C -4.20462332187500 1.05852269375000 4.73574118750000 
 C -4.42951232187500 4.64481069375000 4.70532318750000 
 N -1.93332732187500 1.56950669375000 4.38606018750000 
 N -2.21307632187500 5.44560569375000 4.76438218750000 
 N -4.22224932187500 0.894562693749999 3.42499718750000 
 N -4.14544832187500 4.58053869375000 3.39899418750000 
 N -4.54778232187500 1.14159169375000 7.37150118750000 
 N -5.05028432187500 4.73680769375000 7.24699718750000 
 S -5.46278332187500 0.823424693750000 6.06271118750000 
 S -5.74399232187500 4.27859269375000 5.78898718750000 
 S -2.70218132187500 1.29721969375000 2.85954218750000 
 S -2.60781432187500 5.15543269375000 3.16432818750000 
 S -2.98742832187500 1.58008869375000 7.05947218750000 
 S -3.44167532187500 5.23154669375000 7.21670518750000 
