16

 C -3.40534136562500 1.43706116562500 5.50300771562500 
 C -3.00715836562500 5.13993316562500 5.83833971562500 
 C -4.63144336562500 1.13854216562500 4.82095371562500 
 C -4.29688936562500 4.93559416562500 5.27761771562500 
 N -2.32747836562500 1.57270516562500 4.73790571562500 
 N -2.07014836562500 5.21952816562500 4.91289971562500 
 N -4.45998236562500 1.19026416562500 3.47574571562500 
 N -4.35948636562500 4.85879716562500 3.97581871562500 
 N -5.09489536562500 1.20948816562500 7.33891171562500 
 N -4.74655336562500 5.15466416562500 7.79422771562500 
 S -5.90926136562500 0.768147165624998 5.98318271562500 
 S -5.59939236562500 5.01144716562500 6.36823571562500 
 S -2.85346836562500 1.58273916562500 3.18387871562500 
 S -2.86761936562500 5.02693716562500 3.39058771562500 
 S -3.51826836562500 1.69260916562500 7.16313871562500 
 S -3.08462236562500 5.35520116562500 7.62230971562500 
