16

 C -3.15136214687500 1.42770763437500 5.57725801250000 
 C -3.00087714687500 5.32746363437500 5.88139801250000 
 C -4.33878114687500 0.933377634374997 4.87214701250000 
 C -4.13560614687500 4.78746363437500 5.15905101250000 
 N -2.10172914687500 1.70487363437500 4.82096401250000 
 N -1.92243314687500 5.54957463437500 5.13438001250000 
 N -4.23003514687500 0.908217634374997 3.52308301250000 
 N -3.92750614687500 4.58154263437500 3.85505701250000 
 N -4.85240214687500 0.969906634374997 7.41728901250000 
 N -4.80821814687500 4.84728763437500 7.63579401250000 
 S -5.70681314687500 0.708796634374997 5.95921101250000 
 S -5.55031614687500 4.78917263437500 6.17651001250000 
 S -2.65663714687500 1.36548463437500 3.28400901250000 
 S -2.37251214687500 5.11604963437500 3.55701501250000 
 S -3.27008914687500 1.47519663437500 7.29534101250000 
 S -3.19001014687500 5.29187063437500 7.59360401250000 
