16

 C -3.43237567500000 1.29354780937500 5.44721093437500 
 C -3.23232867500000 5.11950580937500 5.86212293437500 
 C -4.64034267500000 0.872826809374999 4.73051293437500 
 C -4.47123667500000 4.76524980937500 5.16387093437500 
 N -2.43438867500000 1.56190380937500 4.65558993437500 
 N -2.28161967500000 5.38732480937500 5.02798493437500 
 N -4.49771467500000 0.837647809374999 3.43466293437500 
 N -4.41072567500000 4.77137580937500 3.83483293437500 
 N -5.24159867500000 0.994430809374999 7.22832993437500 
 N -4.95802067500000 4.74014080937500 7.67621693437500 
 S -5.84527567500000 0.387711809374998 5.76187393437500 
 S -5.72598267500000 4.35106480937500 6.26033493437500 
 S -2.89510067500000 1.25876880937500 3.12459293437500 
 S -2.89640167500000 5.17890380937500 3.47752993437500 
 S -3.58903167500000 1.28389680937500 7.18796893437500 
 S -3.38102467500000 5.27003080937500 7.61796493437500 
