16

 C -3.17685779062500 1.25607654687500 5.55908656875000 
 C -3.05961879062500 5.06807554687500 5.61144056875000 
 C -4.39465279062500 0.856084546875000 5.01298256875000 
 C -4.28232779062500 4.58788654687500 4.99352356875000 
 N -2.14628779062500 1.38334154687500 4.75924656875000 
 N -2.08026579062500 5.35797454687500 4.76524756875000 
 N -4.26333179062500 0.575321546875001 3.72862756875000 
 N -4.21576479062500 4.51607954687500 3.66285056875000 
 N -4.95690779062500 1.15763154687500 7.41910056875000 
 N -4.85019379062500 4.66629354687500 7.45416356875000 
 S -5.70062079062500 0.575686546875001 6.04122556875000 
 S -5.64033279062500 4.37187654687500 5.98732756875000 
 S -2.78402079062500 1.08020054687500 3.25721356875000 
 S -2.74678979062500 5.05416054687500 3.19454656875000 
 S -3.31734879062500 1.49658554687500 7.23010156875000 
 S -3.22013979062500 5.17897654687500 7.34732356875000 
