16

 C -3.31468340625000 1.41324152500001 5.74692890625000 
 C -2.92378340625000 4.98990152500001 5.61131590625000 
 C -4.61125240625000 1.03864152500001 5.30648290625000 
 C -4.14791340625000 4.63345952500001 4.95386890625000 
 N -2.25031940625000 1.33980152500001 4.94423890625000 
 N -1.88421440625000 5.11061352500001 4.74675490625000 
 N -4.43980640625000 0.573255525000006 4.03709590625000 
 N -4.11009640625000 4.57258552500001 3.63496090625000 
 N -4.73567140625000 1.56104852500001 7.82283190625000 
 N -4.81286740625000 4.73172552500001 7.47494090625000 
 S -5.78126840625000 1.15497352500001 6.59191590625000 
 S -5.49704740625000 4.39005952500001 5.92851990625000 
 S -2.91649940625000 0.872600525000006 3.52470790625000 
 S -2.58755440625000 4.85876152500001 3.21046790625000 
 S -3.13524040625000 1.69078252500001 7.41581490625000 
 S -3.17345140625000 4.98113652500001 7.39921090625000 
