16

 C -3.73378788437500 1.22845267500000 5.64339345625000 
 C -3.03875688437500 5.06633967500000 5.39972945625000 
 C -4.82727288437500 0.581431674999999 4.92846245625000 
 C -4.18051688437500 4.40713667500000 4.83007145625000 
 N -2.67981988437500 1.42335567500000 4.86046345625000 
 N -2.03055388437500 5.13737167500000 4.56215745625000 
 N -4.58212788437500 0.319651674999999 3.62931145625000 
 N -4.07525588437500 4.09019567500000 3.53718745625000 
 N -5.34173488437500 0.545624674999999 7.39122145625000 
 N -4.68110388437500 4.86247167500000 7.32370445625000 
 S -6.13852788437500 0.204536674999999 5.94964945625000 
 S -5.50604388437500 4.36426467500000 5.95810745625000 
 S -3.12382888437500 0.997149674999999 3.34839545625000 
 S -2.59998188437500 4.58807067500000 3.08286345625000 
 S -3.81237588437500 1.16142267500000 7.30132445625000 
 S -3.11986688437500 5.40202567500000 7.09104445625000 
