16

 C -3.35535322500000 1.51173942812500 5.47742200312500 
 C -3.06822122500000 5.29008042812500 5.63950300312500 
 C -4.48596922500000 1.03302542812500 4.75419000312500 
 C -4.35148922500000 5.04784042812500 5.05487600312500 
 N -2.28652022500000 1.66500442812500 4.75658500312500 
 N -2.06661822500000 5.55758142812500 4.73487900312500 
 N -4.28936622500000 0.748582428125001 3.46477000312500 
 N -4.27520222500000 4.89454542812500 3.71587900312500 
 N -5.34224022500000 1.45746742812500 7.13104400312500 
 N -4.87782222500000 5.07829742812500 7.57056600312500 
 S -5.85586722500000 0.732741428125001 5.73434500312500 
 S -5.61872322500000 4.64054242812500 6.15591800312500 
 S -2.78480522500000 1.41889342812500 3.15158500312500 
 S -2.77394822500000 5.28068842812500 3.23318200312500 
 S -3.80019722500000 2.02780142812500 7.07745600312500 
 S -3.21851322500000 5.50776042812500 7.38651400312500 
