16

 C -3.09040727187500 1.48062955625000 5.52750299062500 
 C -2.96150027187500 4.81250155625000 5.35386299062500 
 C -4.28910227187500 1.05626855625000 4.87918499062500 
 C -4.24666727187500 4.75001655625000 4.75773399062500 
 N -2.09560827187500 1.59938055625000 4.69111399062500 
 N -1.91505327187500 4.80032155625000 4.48515399062500 
 N -4.18083427187500 0.789736556250003 3.56336899062500 
 N -4.17810927187500 4.47023755625000 3.43619099062500 
 N -4.89388327187500 1.35335955625000 7.41664899062500 
 N -4.67932627187500 5.20738455625000 7.22147399062500 
 S -5.60472027187500 0.865979556250003 5.99711799062500 
 S -5.57430727187500 4.93704655625000 5.88745899062500 
 S -2.62143327187500 1.10953855625000 3.13891799062500 
 S -2.60920127187500 4.47496155625000 2.97182899062500 
 S -3.25220327187500 1.86028355625000 7.22983799062500 
 S -3.06358927187500 5.31399455625000 7.04893199062500 
