16

 C -2.98102319062500 1.58129547500000 5.40989340000000 
 C -3.20714219062500 5.17040447500000 5.58254840000000 
 C -4.28767919062500 1.22428947500000 4.85976740000000 
 C -4.43574019062500 4.83684747500000 4.95295140000000 
 N -2.05016219062500 1.64809447500000 4.48284040000000 
 N -2.16546619062500 5.27677347500000 4.74534440000000 
 N -4.20713919062500 0.978388475000004 3.54858140000000 
 N -4.35995919062500 4.74240547500000 3.61437540000000 
 N -4.60601619062500 1.41517247500000 7.41265440000000 
 N -5.00043219062500 4.64734247500000 7.43718640000000 
 S -5.52297819062500 1.10196447500000 6.01168440000000 
 S -5.72711019062500 4.37177047500000 5.99477340000000 
 S -2.65115419062500 1.19036447500000 3.02418640000000 
 S -2.79143619062500 4.98974847500000 3.22720740000000 
 S -3.02652019062500 1.93634647500000 7.16139240000000 
 S -3.41041019062500 5.13609147500000 7.35150140000000 
