16

 C -3.12256104062500 1.30436337187500 5.33165707500000 
 C -2.86149504062500 5.04228737187500 5.65998107500000 
 C -4.31228204062500 0.756024371875003 4.62864207500000 
 C -4.06944704062500 4.44512437187500 5.17194907500000 
 N -2.10607804062500 1.57794537187500 4.51750707500000 
 N -1.89782404062500 5.24457837187500 4.76004307500000 
 N -4.13412004062500 0.734595371875002 3.32391407500000 
 N -4.03447004062500 4.21009537187500 3.87273507500000 
 N -4.86996104062500 0.712141371875003 7.09062007500000 
 N -4.51950904062500 4.62667637187500 7.63499307500000 
 S -5.59091204062500 0.303843371875002 5.62615907500000 
 S -5.40961104062500 4.49573337187500 6.25068407500000 
 S -2.63490004062500 1.32254037187500 2.95205807500000 
 S -2.61609704062500 4.82755237187500 3.30040007500000 
 S -3.32522804062500 1.36799237187500 7.02672807500000 
 S -2.97636604062500 5.16262537187500 7.38779807500000 
