16

 C -3.32066376875000 1.36457906875000 5.56021772500000 
 C -2.92318776875000 5.25410706875000 5.46021272500000 
 C -4.42590076875000 0.658510068750000 4.96502972500000 
 C -4.16437476875000 4.92015506875000 4.80519072500000 
 N -2.34843076875000 1.69067206875000 4.73785472500000 
 N -1.85913476875000 5.36730406875000 4.61188672500000 
 N -4.31259376875000 0.418048068750000 3.69369572500000 
 N -4.12809576875000 4.82480306875000 3.48247472500000 
 N -5.13147376875000 1.23484206875000 7.39938372500000 
 N -4.69586976875000 5.10431206875000 7.33551772500000 
 S -5.70516876875000 0.318534068750000 6.16188372500000 
 S -5.46380176875000 4.71455906875000 5.95508472500000 
 S -2.80724876875000 1.01829706875000 3.24470672500000 
 S -2.56886476875000 5.04479306875000 3.07185172500000 
 S -3.57075476875000 1.85907706875000 7.16706372500000 
 S -3.13480676875000 5.39083806875000 7.19012072500000 
