16

 C -2.88799776562500 2.03261591250000 5.38328953125000 
 C -3.01526876562500 5.13728891250000 5.45636453125000 
 C -4.06368076562500 1.41814391250000 4.78013353125000 
 C -4.21891776562500 4.93007691250000 4.74436053125000 
 N -1.86326176562500 2.27665191250000 4.56681253125000 
 N -1.91230876562500 5.15714591250000 4.66908253125000 
 N -3.93587376562500 1.22518991250000 3.44515353125000 
 N -4.15290376562500 4.89960791250000 3.41342953125000 
 N -4.61889676562500 1.82810291250000 7.34113153125000 
 N -4.96137776562500 4.95012391250000 7.22804053125000 
 S -5.44573076562500 1.45606391250000 5.94419953125000 
 S -5.59128176562500 4.54475391250000 5.72183953125000 
 S -2.41016276562500 1.70822391250000 3.06218753125000 
 S -2.52578076562500 5.03764191250000 3.10783453125000 
 S -3.02226776562500 2.28899391250000 7.09568953125000 
 S -3.38017276562500 5.31354791250000 7.16427453125000 
