16

 C -3.14493455312499 1.56914590937500 5.41475367187500 
 C -3.15521355312499 5.29332690937500 5.98074167187500 
 C -4.32832855312499 1.04872190937500 4.75257767187500 
 C -4.43942955312499 5.00837690937500 5.28954467187500 
 N -2.14026255312499 1.88119190937500 4.59851767187500 
 N -2.10586455312499 5.36171790937500 5.17479167187500 
 N -4.18878055312499 0.816063909374997 3.45653867187500 
 N -4.36881355312499 4.87950490937500 3.97831567187500 
 N -4.91131355312499 1.00771990937500 7.26366367187500 
 N -4.96546355312499 5.15375390937500 7.87805367187500 
 S -5.65392455312499 0.660472909374997 5.78047267187500 
 S -5.72752955312499 4.92141590937500 6.43629067187500 
 S -2.65717355312499 1.43735090937500 3.06494567187500 
 S -2.70122555312499 5.04545990937500 3.66514067187500 
 S -3.28334555312499 1.42819790937500 7.18034967187500 
 S -3.29433255312499 5.40043490937500 7.71662867187500 
