16

 C -3.10119609062499 1.52460419375000 5.29372567187500 
 C -3.19185609062499 5.40280919375000 5.78617067187500 
 C -4.26698509062499 0.835981193750000 4.70244867187500 
 C -4.33810109062499 4.85468519375000 5.13829067187500 
 N -2.06485409062499 1.69180019375000 4.49031167187500 
 N -2.17803209062499 5.57677719375000 4.97883467187500 
 N -4.05756609062499 0.456928193750000 3.41875967187500 
 N -4.23445309062499 4.54938819375000 3.87074967187500 
 N -4.83453709062499 1.43378619375000 7.17528867187500 
 N -5.10055009062499 5.14482419375000 7.56575367187500 
 S -5.64729509062499 0.792237193750001 5.88625767187500 
 S -5.71985709062499 4.62260319375000 6.12548967187500 
 S -2.44249209062499 0.958036193750000 3.09340767187500 
 S -2.65226609062499 5.00618319375000 3.50240067187500 
 S -3.26399509062499 1.91641819375000 6.95803167187500 
 S -3.51845609062499 5.52698419375000 7.55765167187500 
