16

 C -2.69840505937500 1.71016733125000 5.32862400312500 
 C -3.34310405937500 5.05529333125000 5.59803400312500 
 C -3.83526705937500 0.903726331250000 4.76286400312500 
 C -4.51456005937500 4.51810633125000 4.93067500312500 
 N -1.81820805937500 2.05693633125000 4.38555700312500 
 N -2.33568705937500 5.41693633125000 4.82449700312500 
 N -3.83756205937500 0.747402331250000 3.42800800312500 
 N -4.39075905937500 4.57155833125000 3.60152700312500 
 N -4.19564905937500 1.05133433125000 7.32575600312500 
 N -5.03928405937500 4.39037733125000 7.43442400312500 
 S -5.00454305937500 0.569444331250000 5.95776800312500 
 S -5.80020805937500 4.01536033125000 5.98685500312500 
 S -2.45574105937500 1.48068033125000 2.93857500312500 
 S -2.83275005937500 5.05289933125000 3.25828000312500 
 S -2.77988605937500 1.89773833125000 7.12078200312500 
 S -3.51598005937500 5.03661733125000 7.28750700312500 
