16

 C -2.82701820625000 1.27978561562500 5.77958854062500 
 C -2.99284220625000 4.64938161562500 5.54659754062500 
 C -4.09532420625000 1.15082361562500 5.07482754062500 
 C -4.20852520625000 4.39045461562500 4.74815954062500 
 N -1.79950020625000 1.13189761562500 4.90965354062500 
 N -1.85429720625000 4.66752461562500 4.82631054062500 
 N -4.01355820625000 1.00002161562500 3.77819854062500 
 N -3.93338120625000 4.22787861562500 3.47047154062500 
 N -4.73149420625000 1.54103561562500 7.49527954062500 
 N -4.99103120625000 4.85905761562500 7.19640154062500 
 S -5.54739820625000 1.31129961562500 6.07201254062500 
 S -5.70042420625000 4.34801261562500 5.78511954062500 
 S -2.46948620625000 1.03420961562500 3.40771754062500 
 S -2.31584520625000 4.39516861562500 3.24134454062500 
 S -3.09345620625000 1.59526261562500 7.47530254062500 
 S -3.32020820625000 5.11063561562500 7.15660454062500 
