16

 C -2.91480379374999 1.59198007812500 5.44949906250000 
 C -3.15389579374999 5.19611007812500 5.57215906250000 
 C -4.03658079374999 0.979025078125002 4.84574606250000 
 C -4.25560279374999 4.53771107812500 4.85734306250000 
 N -1.95598779374999 1.77948207812500 4.49759006250000 
 N -2.09003979374999 5.40105507812500 4.83354506250000 
 N -4.00734879374999 0.706841078125001 3.54579306250000 
 N -3.83950479374999 4.15463207812500 3.60669606250000 
 N -4.61326279374999 1.01017207812500 7.23098506250000 
 N -4.96402979374999 4.92112507812500 7.39118806250000 
 S -5.33400679374999 0.411815078125001 5.86491806250000 
 S -5.67213879374999 4.43886707812500 5.87680106250000 
 S -2.61124279374999 1.20960207812500 3.04680506250000 
 S -2.32040979374999 4.66997807812500 3.37713806250000 
 S -3.13804879374999 1.70084907812500 7.14869906250000 
 S -3.41066979374999 5.44070407812500 7.22322206250000 
