16

 C -3.11847765000000 1.37177238437500 5.39509276562500 
 C -3.40313165000000 5.28102438437500 5.33323776562500 
 C -4.39907065000000 1.02501138437500 4.81845776562500 
 C -4.61416565000000 4.59638538437500 4.79407476562500 
 N -2.18674765000000 1.51219338437500 4.49330176562500 
 N -2.47535265000000 5.58382138437500 4.46279876562500 
 N -4.43166765000000 0.771244384374996 3.51150276562500 
 N -4.51852165000000 4.33760738437500 3.46760376562500 
 N -4.68540065000000 1.19179738437500 7.41327276562500 
 N -4.79826565000000 4.57655338437500 7.39209876562500 
 S -5.62268065000000 0.930779384374996 6.06970576562500 
 S -5.76641365000000 4.21814138437500 6.06266576562500 
 S -2.80587665000000 0.916997384374997 3.06667476562500 
 S -3.05699965000000 4.94843938437500 2.99349276562500 
 S -3.08155565000000 1.56841738437500 7.11990676562500 
 S -3.36877265000000 5.22118838437500 7.08667376562500 
