16

 C -3.40899508125000 1.25427011875000 5.22939377812500 
 C -3.16315108125000 5.13463911875000 5.34014577812500 
 C -4.60450008124999 0.712306118750004 4.64979977812500 
 C -4.44897608125000 4.71945211875000 4.77492877812500 
 N -2.35039308125000 1.46251311875000 4.42891177812500 
 N -2.20170408125000 5.17454111875000 4.42223877812500 
 N -4.41505308125000 0.447865118750004 3.35644477812500 
 N -4.43043808125000 4.37383411875000 3.51760377812500 
 N -4.97063608125000 0.900048118750004 7.19533677812500 
 N -4.89493008125000 4.76005111875000 7.32367377812500 
 S -5.92931208125000 0.775436118750004 5.78945777812500 
 S -5.75301108125000 4.66181811875000 5.91831577812500 
 S -2.80392308125000 0.760618118750004 2.98972877812500 
 S -2.91517308125000 4.60346711875000 2.95048477812500 
 S -3.40550308125000 1.44397711875000 6.97054977812500 
 S -3.25794608125000 5.40579111875000 7.15775477812500 
