16

 C -3.05447424375000 1.37304160937500 5.50464876250000 
 C -3.36430624375000 5.27153660937500 5.15725176250000 
 C -4.28443824375000 0.839227609374999 4.80955076250000 
 C -4.38950224375000 4.42017660937500 4.59427376250000 
 N -2.01091324375000 1.62128860937500 4.69731976250000 
 N -2.31732224375000 5.46083660937500 4.35654376250000 
 N -4.10432224375000 0.581740609374998 3.49982176250000 
 N -4.08313124375000 3.89059060937500 3.40266176250000 
 N -4.79199824375000 1.17123560937500 7.34651576250000 
 N -5.17689124375000 4.94637560937500 6.97960076250000 
 S -5.61586124375000 0.671646609374998 5.96344676250000 
 S -5.75800224375000 4.10348260937500 5.68493576250000 
 S -2.58129024375000 1.13035360937500 3.21664176250000 
 S -2.61966524375000 4.63831760937500 2.92065676250000 
 S -3.23012224375000 1.75589460937500 7.16053476250000 
 S -3.75641424375000 5.77248960937500 6.80294276250000 
