16

 C -3.19011064687500 1.53480160000000 5.38692982500000 
 C -3.14988364687500 5.28542760000000 6.01901682500000 
 C -4.33773464687500 0.993314599999997 4.71151782500000 
 C -4.37786864687500 5.03005060000000 5.33365282500000 
 N -2.12667664687500 1.81634160000000 4.65216782500000 
 N -2.08342664687500 5.36435860000000 5.21623282500000 
 N -4.08778664687500 0.770375599999998 3.42021982500000 
 N -4.31498464687500 4.86449860000000 3.99765482500000 
 N -4.88591064687500 1.03911160000000 7.25813882500000 
 N -4.98253764687500 5.15552860000000 7.82595082500000 
 S -5.63350664687500 0.656873599999997 5.81108782500000 
 S -5.69903564687500 4.89892960000000 6.38591182500000 
 S -2.59346264687500 1.45498960000000 3.04793182500000 
 S -2.74927264687500 5.05218160000000 3.64488082500000 
 S -3.23041564687500 1.46347360000000 7.11152282500000 
 S -3.38167664687500 5.42055560000000 7.76232182500000 
