16

 C -2.85874712812500 1.30437123750001 5.35703572500000 
 C -3.18306212812500 4.96998823750001 5.40501572500000 
 C -4.10471412812500 0.862178237500007 4.84131872500000 
 C -4.39988012812500 4.44993323750001 4.86346872500000 
 N -1.98361112812500 1.45188823750001 4.33218372500000 
 N -2.28738712812500 5.26771923750001 4.45444872500000 
 N -4.24068012812500 0.655583237500007 3.50933372500000 
 N -4.45861112812500 4.32021023750001 3.55198872500000 
 N -4.52788012812500 1.27693023750001 7.30107272500000 
 N -4.85869712812500 4.98123223750001 7.35030872500000 
 S -5.37902712812500 0.884072237500007 5.98601372500000 
 S -5.61716112812500 4.20237923750001 6.11866672500000 
 S -2.72150512812500 1.03631123750001 2.88802372500000 
 S -2.96382712812500 4.95180323750001 3.01606472500000 
 S -2.95111412812500 1.70245623750001 7.10290672500000 
 S -3.22304112812500 5.42215623750001 7.00955572500000 
