16

 C -3.34315381562500 1.32500293750000 5.36757385625000 
 C -3.20825181562500 5.44124693750000 5.69129785625000 
 C -4.45782981562500 0.666976937500002 4.75523985625000 
 C -4.39653881562500 5.14171793750000 4.93072985625000 
 N -2.31841681562500 1.56768693750000 4.56053585625000 
 N -2.05101181562500 5.60537593750000 5.03352085625000 
 N -4.35583981562500 0.493819937500002 3.45264985625000 
 N -4.10987981562500 5.05534293750000 3.65139085625000 
 N -5.13895181562500 1.13207893750000 7.20718885625000 
 N -5.15468881562500 5.15707493750000 7.38733685625000 
 S -5.77773181562500 0.407973937500002 5.87865085625000 
 S -5.86174681562500 5.07923093750000 5.87595385625000 
 S -2.83389181562500 1.05400093750000 3.03931685625000 
 S -2.48598581562500 5.39724493750000 3.44031785625000 
 S -3.48379881562500 1.51562593750000 7.03301985625000 
 S -3.50148281562500 5.43370893750000 7.35636885625000 
