16

 C -2.99759933125000 1.36092523125000 5.64671690000000 
 C -3.01490433125000 5.03706423125000 5.42748590000000 
 C -4.27455033125000 0.971002231250001 5.01194990000000 
 C -4.13712333125000 4.31241323125000 4.90002790000000 
 N -1.95116133125000 1.33846723125000 4.80905090000000 
 N -2.00697033125000 5.06244723125000 4.56044190000000 
 N -4.15561333125000 0.659820231250000 3.74587990000000 
 N -4.05232233125000 3.87171223125000 3.62786790000000 
 N -4.75749833125000 1.15505823125000 7.59765890000000 
 N -4.70432633125000 5.10354923125000 7.26188990000000 
 S -5.59378333125000 0.820211231250001 6.13205290000000 
 S -5.43537833125000 4.23472223125000 6.06911290000000 
 S -2.57260233125000 0.983276231250001 3.32797690000000 
 S -2.50193033125000 4.31633823125000 3.17742090000000 
 S -3.16671933125000 1.54520523125000 7.38156490000000 
 S -3.10371733125000 5.46578323125000 7.11270390000000 
