16

 C -3.08000340937500 0.968312156250001 5.58750182187500 
 C -3.30240640937500 4.85079415625000 5.23974082187500 
 C -4.34716040937500 0.740406156250001 4.97846382187500 
 C -4.49252140937500 4.31477115625000 4.62539782187500 
 N -2.09210440937500 1.19038615625000 4.74339582187500 
 N -2.34064640937500 5.19204115625000 4.37440582187500 
 N -4.28667440937500 0.654623156250000 3.66910182187500 
 N -4.35750540937500 4.02164615625000 3.31693882187500 
 N -4.91266640937500 0.766036156250000 7.50330882187500 
 N -5.13895140937500 4.73013415625000 7.05174182187500 
 S -5.67540140937500 0.533008156250000 6.06446082187500 
 S -5.85961140937500 4.02797515625000 5.72001682187500 
 S -2.74577440937500 1.05361915625000 3.20145382187500 
 S -2.86697040937500 4.62364615625000 2.87271882187500 
 S -3.28467540937500 0.884928156250001 7.31416282187500 
 S -3.59406940937500 5.28521915625000 6.90822882187500 
