16

 C -2.80727781875000 1.84020364687500 5.48655446250000 
 C -3.13753281875000 5.23947164687500 5.67367746250000 
 C -4.08429481875000 1.45800664687500 4.97353846250000 
 C -4.37055281875000 4.72175364687500 5.11337046250000 
 N -1.80714181875000 1.98546864687500 4.57424246250000 
 N -2.15574681875000 5.38388464687500 4.74658746250000 
 N -4.12608981875000 1.17232664687500 3.67686146250000 
 N -4.35504981875000 4.52543864687500 3.79487646250000 
 N -4.52277281875000 1.52838664687500 7.56867746250000 
 N -4.93719281875000 5.06667464687500 7.58273646250000 
 S -5.39885881875000 1.52386664687500 6.14965246250000 
 S -5.74414881875000 4.67143064687500 6.14936746250000 
 S -2.59784081875000 1.54881264687500 3.11907146250000 
 S -2.79794581875000 4.89983164687500 3.30831746250000 
 S -2.90411881875000 1.96214764687500 7.28119546250000 
 S -3.29114881875000 5.30767764687500 7.46583946250000 
