16

 C -2.82865322500000 1.16636685312500 5.48309882187500 
 C -2.99712122500000 5.11865185312500 5.67307682187500 
 C -4.06805822500000 0.865017853124997 4.83839282187500 
 C -4.16500322500000 4.60409885312500 5.00406282187500 
 N -1.80524522500000 1.33558885312500 4.63522482187500 
 N -1.97597422500000 5.44333985312500 4.88714482187500 
 N -4.01223122500000 0.882231853124997 3.50043982187500 
 N -3.98214422500000 4.46850885312500 3.70317382187500 
 N -4.54216322500000 1.26713485312500 7.30145482187500 
 N -4.81516322500000 4.85650385312500 7.45733082187500 
 S -5.41570922500000 0.885846853124997 5.90387682187500 
 S -5.50462222500000 4.23779585312500 6.08833782187500 
 S -2.45406422500000 1.20860385312500 3.14179082187500 
 S -2.46401322500000 4.94001585312500 3.38085682187500 
 S -2.91093622500000 1.53261085312500 7.13127482187500 
 S -3.22982022500000 5.40142785312500 7.30523382187500 
