16

 C -3.02137935937500 1.29225336562500 5.74313671250000 
 C -3.19995835937500 5.08001236562500 5.46091671250000 
 C -4.18415635937500 0.715747365625000 5.11057771250000 
 C -4.36627535937500 4.54294736562500 4.83979471250000 
 N -1.93474535937500 1.46906236562500 4.96036971250000 
 N -2.19608135937500 5.25702736562500 4.60419871250000 
 N -3.95477935937500 0.294885365624999 3.86665271250000 
 N -4.27118835937500 4.26106936562500 3.55176571250000 
 N -4.71695535937500 0.781315365624999 7.66997971250000 
 N -4.86820735937500 4.68361136562500 7.39965871250000 
 S -5.51177135937500 0.359351365624999 6.27302671250000 
 S -5.66475135937500 4.25485636562500 5.99229271250000 
 S -2.42400735937500 0.755791365624999 3.53194371250000 
 S -2.70241535937500 4.63437936562500 3.13230271250000 
 S -3.20848035937500 1.46570036562500 7.46025771250000 
 S -3.31966835937500 5.18868036562500 7.19415971250000 
