16

 C -3.01109619687500 1.87001635625000 5.45345934062500 
 C -3.65449519687500 5.31852835625000 5.52828634062500 
 C -4.09185519687500 1.14478235625000 4.81909534062500 
 C -4.65844919687500 4.47391935625000 4.90491734062500 
 N -2.01791719687500 2.13697935625000 4.65049134062500 
 N -2.62304119687500 5.51041035625000 4.70124334062500 
 N -3.87592119687500 0.936727356250001 3.56726634062500 
 N -4.49580419687500 4.23147335625000 3.60502334062500 
 N -4.65805119687500 0.951356356250001 7.25379034062500 
 N -5.26497019687500 4.68619835625000 7.42605634062500 
 S -5.33019819687500 0.527897356250001 5.79524834062500 
 S -5.90617719687500 3.97727335625000 6.05765634062500 
 S -2.37162619687500 1.47703535625000 3.15663634062500 
 S -3.06279719687500 4.97168835625000 3.21372034062500 
 S -3.25648019687500 1.85250135625000 7.14950434062500 
 S -3.78607619687500 5.47865635625000 7.23801434062500 
