16

 C -3.01141594375000 1.88265740625000 5.44237460937500 
 C -3.66418494375000 5.30357840625000 5.52854360937500 
 C -4.07485794375000 1.14796740625000 4.82336160937500 
 C -4.66700694375000 4.48214140625000 4.89900560937500 
 N -2.00416094375000 2.15205640625000 4.64370660937500 
 N -2.62895394375000 5.51619540625000 4.71462160937500 
 N -3.87041494375000 0.939604406250000 3.56096460937500 
 N -4.48857094375000 4.23065240625000 3.60506760937500 
 N -4.65311994375000 0.966197406250000 7.25139260937500 
 N -5.26620994375000 4.70066440625000 7.42126760937500 
 S -5.31386694375000 0.515342406249999 5.79674560937500 
 S -5.89540194375000 3.96993440625000 6.04749560937500 
 S -2.36874594375000 1.47407240625000 3.15741560937500 
 S -3.06029594375000 4.97662340625000 3.21844860937500 
 S -3.24193794375000 1.85352040625000 7.14883160937500 
 S -3.77974394375000 5.47112740625000 7.24041560937500 
