16

 C -3.24117280625000 0.889756937500000 5.46019016562500 
 C -3.35263980625000 5.03947093750000 5.52069516562500 
 C -4.52919980625000 0.681119937499999 4.79551616562500 
 C -4.52631380625000 4.55899693750000 4.83758516562500 
 N -2.23157080625000 1.07245393750000 4.63694316562500 
 N -2.27937280625000 5.34472593750000 4.79363016562500 
 N -4.39317980625000 0.661607937499999 3.48914716562500 
 N -4.31967080625000 4.44466893750000 3.51079316562500 
 N -5.05106880625000 0.655987937499999 7.26094416562500 
 N -4.98681580625000 4.49331593750000 7.41724016562500 
 S -5.89143880625000 0.487149937499999 5.84833316562500 
 S -5.85304580625000 4.35129293750000 6.00734516562500 
 S -2.85611580625000 0.983980937499999 3.06854516562500 
 S -2.78193180625000 4.94235793750000 3.24418716562500 
 S -3.43039180625000 0.807663937499999 7.16651116562500 
 S -3.40896080625000 5.00721993750000 7.25923516562500 
