16

 C -3.03936900625000 1.32313925625000 5.43963054687500 
 C -3.07714900625000 5.08575225625000 5.65877554687500 
 C -4.16910600625000 0.741506256250000 4.72998554687500 
 C -4.15445100625000 4.48239125625000 4.90991154687500 
 N -2.12897100625000 1.71305025625000 4.61810954687500 
 N -2.00433800625000 5.27419025625000 4.88600154687500 
 N -3.99140200625000 0.677909256250000 3.39659954687500 
 N -3.88310700625000 4.24281425625000 3.65742154687500 
 N -4.76738000625000 0.965976256250000 7.35800954687500 
 N -5.07009400625000 5.05218025625000 7.20760254687500 
 S -5.47382500625000 0.370763256250001 5.97535354687500 
 S -5.64753300625000 4.36414125625000 5.78645154687500 
 S -2.53498000625000 1.36127425625000 3.08482554687500 
 S -2.38077600625000 4.81687825625000 3.36227154687500 
 S -3.26548900625000 1.65125725625000 7.15386254687500 
 S -3.54182700625000 5.55618425625000 7.28063654687500 
