16

 C -3.02606410937500 0.936796284374992 5.49325372500000 
 C -3.00145810937500 5.03118228437499 5.54171172500000 
 C -4.19634510937500 0.587208284374992 4.73676472500000 
 C -4.29601510937500 4.80449328437499 4.94417572500000 
 N -1.93455810937500 1.10833128437499 4.74842172500000 
 N -1.98909210937500 4.93982528437499 4.66580072500000 
 N -4.08094910937500 0.492021284374992 3.39157272500000 
 N -4.29044010937500 4.55980228437499 3.61294772500000 
 N -5.00181710937500 1.03558528437499 7.18365172500000 
 N -4.87053210937500 5.10276328437499 7.39976572500000 
 S -5.63851810937500 0.450443284374993 5.75080572500000 
 S -5.63290610937500 4.85941828437499 5.92025972500000 
 S -2.39665310937500 0.783074284374993 3.18837172500000 
 S -2.67093010937500 4.67731028437499 3.19666372500000 
 S -3.38419910937500 1.33665428437499 7.17532072500000 
 S -3.22991810937500 5.31411728437499 7.24824472500000 
