16

 C -3.05936671562500 0.921289175000001 5.47576943125000 
 C -3.01413871562500 4.98165017500000 5.51946243125000 
 C -4.26732271562500 0.581052175000001 4.70724143125000 
 C -4.27806771562500 4.76764717500000 4.89461943125000 
 N -1.94853471562500 1.10345717500000 4.77039343125000 
 N -1.98160271562500 4.95452417500000 4.65284843125000 
 N -4.06203671562500 0.546562175000001 3.40947043125000 
 N -4.29346171562500 4.48826917500000 3.59571443125000 
 N -4.97936371562500 0.937161175000001 7.23924043125000 
 N -4.89860171562500 5.06598717500000 7.40266843125000 
 S -5.64593271562500 0.431093175000001 5.75769343125000 
 S -5.65922771562500 4.91572017500000 5.92203643125000 
 S -2.39514971562500 0.833960175000001 3.18211243125000 
 S -2.71628671562500 4.64163717500000 3.16696243125000 
 S -3.34993371562500 1.31190117500000 7.14342743125000 
 S -3.20307271562500 5.24686617500000 7.28851343125000 
