16

 C -3.13460405937500 1.27075636562500 5.40010185937500 
 C -3.23899705937500 5.36118536562500 5.59648185937500 
 C -4.32802605937500 0.600777365625000 4.87226885937500 
 C -4.37273205937500 4.72305936562500 4.99777085937500 
 N -2.08094905937500 1.22566736562500 4.60073685937500 
 N -2.17742005937500 5.61895636562500 4.81197585937500 
 N -4.20530005937500 0.105223365624999 3.65106185937500 
 N -4.15478005937500 4.33414236562500 3.68596985937500 
 N -5.06802305937500 1.34734236562500 7.19082585937500 
 N -4.93432505937500 5.17923036562500 7.49734385937500 
 S -5.69735205937500 0.534195365624999 5.84351885937500 
 S -5.70379205937500 4.70689636562500 6.13578585937500 
 S -2.62019805937500 0.409179365625000 3.20397185937500 
 S -2.60040205937500 4.91943436562500 3.35561485937500 
 S -3.53777905937500 1.96972436562500 7.00659785937500 
 S -3.38409405937500 5.67426636562500 7.29601785937500 
