16

 C -3.05307310000000 1.29362928437500 5.57475525937500 
 C -3.12263710000000 5.18969128437500 5.18527925937500 
 C -4.17765710000000 0.950346284375001 4.79229225937500 
 C -4.35333010000000 4.79133428437500 4.61091525937500 
 N -1.91734510000000 1.33184328437500 4.85356825937500 
 N -2.14853710000000 5.51586628437500 4.34082825937500 
 N -3.94930510000000 0.660372284375002 3.51144025937500 
 N -4.21964610000000 4.56601028437500 3.29695225937500 
 N -4.86021210000000 1.29484528437500 7.26562225937500 
 N -4.79695410000000 4.86623628437500 7.16770625937500 
 S -5.58531710000000 0.893540284375002 5.80791125937500 
 S -5.66868110000000 4.73505928437500 5.78419425937500 
 S -2.35969810000000 0.981164284375001 3.27785125937500 
 S -2.71245510000000 5.03516628437500 2.84744525937500 
 S -3.23378810000000 1.58454028437500 7.22801425937500 
 S -3.18628910000000 5.41271928437500 6.93220625937500 
