16

 C -3.24525388125000 1.52410716875000 5.47304829375000 
 C -3.20250188125000 5.05651216875000 5.63152129375000 
 C -4.49514788125000 1.12010916875000 4.79468529375000 
 C -4.34884888125000 4.52008116875000 4.98833729375000 
 N -2.24130188125000 1.60952216875000 4.59026429375000 
 N -2.13031588125000 5.23307016875000 4.84523929375000 
 N -4.41737088125000 1.00047616875000 3.46826729375000 
 N -4.19000088125000 4.23306416875000 3.69862729375000 
 N -4.93169888125000 1.41443516875000 7.35139129375000 
 N -4.87835588125000 4.69194616875000 7.55856429375000 
 S -5.76893888125000 0.927676168749999 5.99041729375000 
 S -5.63920188125000 4.26534216875000 6.11084129375000 
 S -2.81163988125000 1.41668616875000 3.10130729375000 
 S -2.64085588125000 4.71099516875000 3.37805829375000 
 S -3.28071988125000 1.72568016875000 7.21201729375000 
 S -3.33739488125000 5.35370316875000 7.28842429375000 
