16

 C -2.99625926562500 1.41628876562500 5.52437845000000 
 C -3.00998926562500 4.87218776562500 5.22730845000000 
 C -4.23316126562500 1.01627376562500 4.86461045000000 
 C -4.33723726562500 4.89345776562500 4.60678145000000 
 N -1.89446426562500 1.45823776562500 4.79827445000000 
 N -1.97600726562500 4.79910076562500 4.41961045000000 
 N -3.96919126562500 0.667830765625004 3.65206645000000 
 N -4.23573126562500 4.63093076562500 3.33423545000000 
 N -4.86746926562500 1.32508776562500 7.33682245000000 
 N -4.68457026562500 5.23268076562500 7.10728945000000 
 S -5.63202926562500 0.912240765625003 5.90536145000000 
 S -5.58097026562500 4.83384776562500 5.78928545000000 
 S -2.41220326562500 1.03448176562500 3.25204645000000 
 S -2.67735826562500 4.60276976562500 2.91403445000000 
 S -3.23052826562500 1.81950876562500 7.14850845000000 
 S -3.04917926562500 5.32013876562500 6.89053645000000 
