16

 C -3.26581707187500 1.50625679687500 5.23204974375000 
 C -3.08279507187500 5.07944079687500 5.43130074375000 
 C -4.45910807187500 0.969233796875002 4.54207774375000 
 C -4.27452607187500 4.65018579687500 4.75816874375000 
 N -2.15232207187500 1.53799679687500 4.47867974375000 
 N -2.01130407187500 5.06717179687500 4.65780874375000 
 N -4.23537207187500 0.623643796875001 3.26398774375000 
 N -4.05552307187500 4.04739279687500 3.57378274375000 
 N -5.09098707187500 1.02802479687500 7.03868674375000 
 N -4.85817507187500 4.91354179687500 7.29439174375000 
 S -5.79687407187500 0.532428796875001 5.61209974375000 
 S -5.64327407187500 4.46654179687500 5.89499874375000 
 S -2.64597607187500 0.867092796875001 3.01560774375000 
 S -2.43007307187500 4.21802279687500 3.26339174375000 
 S -3.59360907187500 1.70127679687500 6.94900874375000 
 S -3.32034407187500 5.48566779687500 7.11699574375000 
