16

 C -3.01155541562500 1.39008544375000 5.47118180625000 
 C -3.17706041562500 5.02406344375000 5.39991580625000 
 C -4.15160941562500 0.962972443750002 4.77264680625000 
 C -4.43186541562500 4.53606444375000 4.93059080625000 
 N -1.94658141562500 1.64664344375000 4.71978380625000 
 N -2.19290041562500 5.17207044375000 4.51729680625000 
 N -3.96408441562500 0.714898443750002 3.48355380625000 
 N -4.36645441562500 4.25178144375000 3.63023180625000 
 N -5.01301341562500 1.34706844375000 7.18515880625000 
 N -4.90531241562500 5.17898044375000 7.35000880625000 
 S -5.63965041562500 0.912401443750002 5.69704180625000 
 S -5.70605941562500 4.45081944375000 6.06931380625000 
 S -2.40552541562500 1.06012344375000 3.19153680625000 
 S -2.85517941562500 4.64089444375000 3.08753080625000 
 S -3.41799341562500 1.85870544375000 7.18228180625000 
 S -3.31773341562500 5.52003544375000 7.01305480625000 
