16

 C -2.91912501875000 1.62039137812500 5.78128477187500 
 C -3.15276801875000 5.26835137812500 5.69195377187500 
 C -4.18651101875000 1.37531737812500 5.12790777187500 
 C -4.40142601875000 4.91720037812500 5.06190177187500 
 N -1.97195701875000 1.91687837812500 4.93005877187500 
 N -2.19462101875000 5.45153937812500 4.80784077187500 
 N -4.17516201875000 1.53186837812500 3.83173477187500 
 N -4.36510801875000 4.75603237812500 3.73681277187500 
 N -4.67150801875000 1.60603137812500 7.61246277187500 
 N -4.80724501875000 5.24688637812500 7.63551777187500 
 S -5.51041301875000 1.49117837812500 6.22956477187500 
 S -5.66876201875000 4.83223537812500 6.25599277187500 
 S -2.57304701875000 1.83333337812500 3.40283077187500 
 S -2.79179101875000 5.06991237812500 3.30571877187500 
 S -3.04663801875000 1.77922337812500 7.46802677187500 
 S -3.15499401875000 5.53229037812500 7.43659677187500 
