16

 C -3.05439013125000 1.45185519375000 5.55706516562500 
 C -3.41748913125000 5.17660619375000 5.14964416562500 
 C -4.23253213125000 0.928953193749996 4.86135016562500 
 C -4.41264213125000 4.34871919375000 4.55202216562500 
 N -1.99877213125000 1.49253319375000 4.73743916562500 
 N -2.31382113125000 5.31815419375000 4.44723216562500 
 N -4.02467413125000 0.764149193749997 3.56769716562500 
 N -4.11872613125000 3.96180119375000 3.29993816562500 
 N -4.89757113125000 1.07509119375000 7.31714916562500 
 N -5.17186813125000 5.01690519375000 6.99799916562500 
 S -5.60039413125000 0.749678193749997 5.84764016562500 
 S -5.72437213125000 4.10846719375000 5.68187816562500 
 S -2.41468813125000 1.14854519375000 3.16349616562500 
 S -2.56340113125000 4.53325419375000 3.02833116562500 
 S -3.37119513125000 1.73154319375000 7.22841416562500 
 S -3.76342213125000 5.83545519375000 6.66740216562500 
