16

 C -3.11522083437500 1.29848747500000 5.26331928750000 
 C -2.93373883437500 5.15011647500000 5.58566128750000 
 C -4.27653283437500 0.884719475000002 4.61645228750000 
 C -4.19967783437500 4.70517047500000 5.07494928750000 
 N -2.18742783437500 1.80019747500000 4.51190528750000 
 N -1.96890783437500 5.25413847500000 4.62641428750000 
 N -4.20041683437500 0.963371475000002 3.29308928750000 
 N -4.24508383437500 4.49228247500000 3.75305328750000 
 N -4.66202783437500 0.587276475000003 7.13185228750000 
 N -4.58077583437500 5.08444647500000 7.62257028750000 
 S -5.49876683437500 0.207102475000003 5.73923328750000 
 S -5.39350483437500 4.48250647500000 6.30861428750000 
 S -2.71639383437500 1.57096047500000 2.92722928750000 
 S -2.77131683437500 4.80936147500000 3.19416628750000 
 S -3.16143383437500 1.24752947500000 6.95845428750000 
 S -3.03780483437500 5.49583047500000 7.30414428750000 
