16

 C -3.07902060625000 1.28852297500000 5.27044459062500 
 C -2.89398760625000 5.13617597500000 5.57760959062500 
 C -4.27067060625000 0.827212975000005 4.58332259062500 
 C -4.13923360625000 4.64638097500000 5.09038959062500 
 N -2.10275160625000 1.81087897500000 4.51575159062500 
 N -1.97011360625000 5.27649197500001 4.61931859062500 
 N -4.19975760625000 0.914564975000005 3.26325259062500 
 N -4.27967760625000 4.44731097500001 3.77247059062500 
 N -4.67586160625000 0.600418975000005 7.12961759062500 
 N -4.55935860625000 5.09002297500000 7.62785059062500 
 S -5.50812060625000 0.193920975000005 5.71915959062500 
 S -5.37931260625000 4.49805597500000 6.32651259062500 
 S -2.70972260625000 1.55794697500000 2.95657159062500 
 S -2.75290060625000 4.79856797500001 3.17630559062500 
 S -3.11768960625000 1.24918297500000 6.96451259062500 
 S -3.00416060625000 5.45999697500001 7.33911259062500 
