16

 C -2.97558581250000 1.37498386250000 5.41046930625000 
 C -3.37698581250000 5.36903686250000 5.22765030625000 
 C -4.18458781250000 0.934845862500000 4.73302330625000 
 C -4.41566881250000 4.44348886250000 4.76668430625000 
 N -1.94503681250000 1.54518386250000 4.63918930625000 
 N -2.27997381250000 5.40347686250000 4.48853030625000 
 N -3.99535681250000 0.813417862500000 3.38579430625000 
 N -4.16593281250000 4.00169786250000 3.55464830625000 
 N -4.71789881250000 1.21585986250000 7.31690130625000 
 N -5.19416181250000 5.21078886250000 7.05134330625000 
 S -5.44271081250000 0.976657862500000 5.87796130625000 
 S -5.80443881250000 4.32758586250000 5.80364930625000 
 S -2.34177781250000 1.14666586250000 3.03472030625000 
 S -2.70210181250000 4.50655986250000 3.08427730625000 
 S -3.11892181250000 1.60726786250000 7.10652930625000 
 S -3.72081481250000 5.94507886250000 6.85503430625000 
