16

 C -3.14986806562500 1.41989238437500 5.39638903125000 
 C -3.24402406562500 5.20620438437500 5.36959403125000 
 C -4.28197906562500 0.811123384374998 4.83314003125000 
 C -4.51410606562500 4.71879538437500 4.89237403125000 
 N -2.06517506562500 1.62283038437500 4.64947203125000 
 N -2.22966406562500 5.13059538437500 4.50518603125000 
 N -4.11604606562500 0.411089384374998 3.57740403125000 
 N -4.49331306562500 4.30314338437500 3.63755003125000 
 N -4.99994106562500 1.43974038437500 7.32449203125000 
 N -4.98838106562500 5.23331238437500 7.33378203125000 
 S -5.64187006562500 0.634608384374998 6.01843603125000 
 S -5.81175806562500 4.69071538437500 6.00317403125000 
 S -2.54113006562500 0.880189384374998 3.14600203125000 
 S -2.96686706562500 4.58136738437500 3.05057503125000 
 S -3.40637206562500 1.89883738437500 7.11772003125000 
 S -3.40921806562500 5.60441738437500 7.05062403125000 
