16

 C -2.97737350312501 1.53718957187500 5.36625999687500 
 C -3.10295150312501 5.31891557187500 5.53339299687500 
 C -4.10931250312501 0.923207571874998 4.72452899687500 
 C -4.25523950312501 4.63335657187500 4.87666699687500 
 N -1.97008850312501 1.75498957187500 4.48779399687500 
 N -2.02961550312501 5.41187557187500 4.70465599687500 
 N -4.06402750312501 0.707458571874999 3.38436599687500 
 N -4.07326750312501 4.17115957187500 3.65124099687500 
 N -4.52222050312501 1.06720557187500 7.38924399687500 
 N -4.89971450312501 4.87759457187500 7.33626799687500 
 S -5.32416050312501 0.553551571874999 6.00463299687500 
 S -5.60225050312501 4.38924657187500 5.88944499687500 
 S -2.43017150312501 1.17027857187500 2.97821899687500 
 S -2.51310850312501 4.60394757187500 3.26907599687500 
 S -2.99405750312501 1.75165357187500 7.07185599687500 
 S -3.31745650312501 5.42426757187500 7.25955099687500 
