16

 C -3.48273652187500 1.81529117500000 5.60541845000000 
 C -2.86925252187500 5.16173917500000 5.53186345000000 
 C -4.64343752187500 1.25087417500000 4.92333145000000 
 C -4.17356752187500 4.92128817500000 4.94302645000000 
 N -2.41232752187500 2.07684817500000 4.82662645000000 
 N -1.89472952187500 5.22496117500000 4.63221145000000 
 N -4.44713252187500 1.00112317500000 3.62220145000000 
 N -4.25375252187500 4.75101117500000 3.65703145000000 
 N -5.07809952187500 1.30887317500000 7.44634745000000 
 N -4.66251452187500 4.91448117500000 7.47765345000000 
 S -6.00477652187500 1.17217317500000 6.06408545000000 
 S -5.49803652187500 4.85896117500000 6.05043245000000 
 S -2.80193452187500 1.41117817500000 3.34859145000000 
 S -2.71585752187500 4.97714417500000 3.14519545000000 
 S -3.54989552187500 1.83500217500000 7.27392045000000 
 S -3.02507652187500 5.28457617500000 7.30004045000000 
