16

 C -3.21616843750000 1.19964029375000 5.51248070000000 
 C -3.17173143750000 5.45923929375000 5.56052170000000 
 C -4.41347543750000 0.785756293750000 4.83921770000000 
 C -4.24539843750000 4.87408629375000 4.83192870000000 
 N -2.20494543750000 1.40174729375000 4.74556970000000 
 N -2.16115243750000 5.76617929375000 4.79179570000000 
 N -4.32439343750000 0.789687293750000 3.51750370000000 
 N -4.14268143750000 4.94977429375000 3.48634670000000 
 N -4.90766743750000 1.02518129375000 7.35408970000000 
 N -4.88051043750000 4.80030929375000 7.43838070000000 
 S -5.70849843750000 0.496558293750000 6.00680070000000 
 S -5.49618643750000 4.36325229375000 5.95301970000000 
 S -2.72859543750000 1.01457729375000 3.17957570000000 
 S -2.64956443750000 5.55180529375000 3.20155970000000 
 S -3.29147943750000 1.27293529375000 7.23616070000000 
 S -3.34802143750000 5.53528129375000 7.31795870000000 
