16

 C -3.24121841562500 1.38583841562500 5.70124295312500 
 C -3.21183841562500 5.47387041562500 5.46859695312500 
 C -4.55771841562500 1.31613741562500 4.99611395312500 
 C -4.39319041562500 4.94368841562500 4.84383295312500 
 N -2.19847541562500 1.31714141562500 4.90132495312500 
 N -2.11756941562500 5.63105541562500 4.72365895312500 
 N -4.40078341562500 1.14492941562500 3.67334795312500 
 N -4.16323941562500 4.66974641562500 3.57715895312500 
 N -4.95633941562500 1.08102241562500 7.56657995312500 
 N -4.94874041562500 4.90858741562500 7.40907695312500 
 S -5.87810241562500 1.02277041562500 6.17450595312500 
 S -5.68508141562500 4.56059041562500 5.96700995312500 
 S -2.76559141562500 1.17361341562500 3.31113395312500 
 S -2.56756241562500 5.10104641562500 3.24563595312500 
 S -3.35399541562500 1.39013041562500 7.41634895312500 
 S -3.37825641562500 5.44516341562500 7.15680595312500 
