16

 C -3.42098536562500 1.24412393750000 5.31769943125000 
 C -3.14864636562500 5.06190793750000 5.30723943125000 
 C -4.60670036562500 0.706998937500003 4.67731543125000 
 C -4.38928836562500 4.64913593750000 4.74029543125000 
 N -2.29014936562500 1.36049293750000 4.57321843125000 
 N -2.08207036562500 5.05252193750000 4.45524743125000 
 N -4.32577636562500 0.353129937500002 3.41076743125000 
 N -4.33144836562500 4.29642393750000 3.45135243125000 
 N -5.16087436562500 1.00982193750000 7.17221943125000 
 N -4.89172536562500 4.87459593750000 7.22050743125000 
 S -5.94803136562500 0.581698937500002 5.78876943125000 
 S -5.75605036562500 4.78992393750000 5.79022043125000 
 S -2.80106336562500 0.888469937500003 3.09049343125000 
 S -2.75399736562500 4.58266393750000 3.04837643125000 
 S -3.61114736562500 1.45168293750000 7.04642343125000 
 S -3.35803036562500 5.49398393750000 6.96717743125000 
