16

 C -3.00984582187500 1.18954936875000 5.69072518437500 
 C -3.09747482187500 4.89602336875000 5.50822418437500 
 C -4.10876782187500 0.522999368750001 5.04948718437500 
 C -4.36482082187500 4.52495936875000 4.87021518437500 
 N -2.03204882187500 1.49836236875000 4.84249618437500 
 N -2.11648782187500 5.05145936875000 4.64237218437500 
 N -3.95851382187500 0.248369368750000 3.74525618437500 
 N -4.21240582187500 4.17220636875000 3.59649718437500 
 N -4.84689982187500 0.931915368750000 7.46978918437500 
 N -4.91325382187500 5.10013436875000 7.23822518437500 
 S -5.47606682187500 0.311019368750000 6.05814018437500 
 S -5.67797782187500 4.29937236875000 5.97830618437500 
 S -2.49120882187500 0.863502368750001 3.38163418437500 
 S -2.68836282187500 4.55398136875000 3.15188518437500 
 S -3.31308782187500 1.57166836875000 7.41525118437500 
 S -3.26578982187500 5.16536936875000 7.17313518437500 
