16

 C -3.22591368750000 1.45015495312501 5.37801694062500 
 C -3.33609068750000 5.27277295312501 5.39997694062500 
 C -4.41187768750000 0.782291953125005 4.90441694062500 
 C -4.50200268750000 4.69059195312501 4.76545694062500 
 N -2.30492868750000 1.71183295312501 4.47391294062500 
 N -2.35948368750000 5.62026495312501 4.56014294062500 
 N -4.40513068750000 0.424799953125006 3.62941894062500 
 N -4.43593868750000 4.63445295312501 3.42923794062500 
 N -4.71958368750000 1.15819895312501 7.44540294062500 
 N -5.05619068750000 4.72407195312501 7.22389294062500 
 S -5.60481568750000 0.510326953125006 6.19604394062500 
 S -5.69605968750000 4.12114295312501 5.80334794062500 
 S -2.87973368750000 1.01389095312501 3.10624594062500 
 S -2.86815268750000 5.17817595312501 3.01866794062500 
 S -3.35004068750000 1.96673095312501 7.01904894062500 
 S -3.65416868750000 5.53233895312500 7.09237894062500 
