16

 C -3.28928772187500 1.14895595000000 5.96737006250000 
 C -2.90910072187500 4.66091895000000 5.28724106250000 
 C -4.43141272187500 0.608072950000001 5.19067106250000 
 C -4.23012072187500 4.46515695000000 4.74655606250000 
 N -2.27640472187500 1.48126295000000 5.18878006250000 
 N -1.93251772187500 4.85800295000000 4.41130306250000 
 N -4.26500272187500 0.705600950000001 3.86627106250000 
 N -4.23860072187500 4.47539795000000 3.43039206250000 
 N -4.95316372187500 0.434648950000001 7.69105006250000 
 N -4.67566072187500 4.54575695000000 7.25494806250000 
 S -5.76104172187500 0.314331950000001 6.24804506250000 
 S -5.55729272187500 4.51850495000000 5.86127306250000 
 S -2.68762572187500 1.29622595000000 3.60593406250000 
 S -2.70163172187500 4.71963295000000 2.90725006250000 
 S -3.49961772187500 1.30800895000000 7.67445906250000 
 S -3.04666172187500 4.83701095000000 7.06140306250000 
