16

 C -3.19931661562500 0.945905803125002 5.63385501562500 
 C -3.22662061562500 4.88632580312500 5.33425701562500 
 C -4.39563461562500 0.742506803125002 4.91101901562500 
 C -4.40781061562500 4.36743080312500 4.61688801562500 
 N -2.10924961562500 1.00467680312500 4.87556401562500 
 N -2.16520061562500 5.01298780312500 4.58780101562500 
 N -4.23588361562500 0.835753803125002 3.58557401562500 
 N -4.24966361562500 4.25428580312500 3.30972901562500 
 N -4.94337761562500 0.657322803125002 7.34986001562500 
 N -4.94077361562500 4.67297180312500 7.12127401562500 
 S -5.77641661562500 0.421114803125001 5.91209301562500 
 S -5.69130261562500 4.13682480312500 5.78992801562500 
 S -2.59258261562500 0.928531803125002 3.28301201562500 
 S -2.66406061562500 4.70687380312500 3.01140501562500 
 S -3.29651561562500 0.892472803125002 7.33495201562500 
 S -3.46908261562500 5.38115880312500 6.95461601562500 
