16

 C -3.23048140625000 1.08625307187500 5.61010643125000 
 C -3.30366640625000 5.17591507187500 5.63940543125000 
 C -4.48227740625000 0.792858071874998 4.91959643125000 
 C -4.37628540625000 4.48791407187500 4.96059443125000 
 N -2.11490840625000 1.08520007187500 4.86310843125000 
 N -2.32892340625000 5.59696107187500 4.84700243125000 
 N -4.28975740625000 0.691065071874998 3.60197343125000 
 N -4.21809040625000 4.34881907187500 3.65868343125000 
 N -4.94460640625000 0.662853071874998 7.47451543125000 
 N -4.97592140625000 4.59384507187500 7.53302143125000 
 S -5.81474740625000 0.593602071874998 6.05750743125000 
 S -5.60304240625000 4.00411307187500 6.06573343125000 
 S -2.65901840625000 0.941661071874998 3.30632043125000 
 S -2.74580940625000 5.08853607187500 3.32744043125000 
 S -3.35187840625000 1.09119207187500 7.33412643125000 
 S -3.47933040625000 5.31935607187500 7.40545543125000 
