16

 C -3.00817344687500 1.08844280625000 5.83128225312500 
 C -3.24027044687500 5.02078580625000 5.53219925312500 
 C -4.21048644687500 0.661485806249999 5.14137425312500 
 C -4.38808944687500 4.36786380625000 4.87632225312500 
 N -1.95434744687500 1.24381180625000 5.01168725312500 
 N -2.23786144687500 5.29329480625000 4.71089525312500 
 N -4.06920944687500 0.398303806250000 3.82681325312500 
 N -4.24324044687500 4.32450780625000 3.56917125312500 
 N -4.84836244687500 0.932508806250000 7.66445225312500 
 N -4.88044844687500 4.52819880625000 7.41745925312500 
 S -5.58724344687500 0.476749806249999 6.21629425312500 
 S -5.69287544687500 4.08437580625000 5.98305025312500 
 S -2.53257644687500 0.847296806249999 3.49783025312500 
 S -2.76288644687500 4.97389880625000 3.16868625312500 
 S -3.17579144687500 1.36034380625000 7.58727525312500 
 S -3.41270044687500 5.34393880625000 7.25602325312500 
