16

 C -3.10293510000000 1.27189523437500 5.72990155625000 
 C -3.07356710000000 4.59714723437500 5.42288255625000 
 C -4.35564310000000 0.952396234375001 5.13166455625000 
 C -4.27005410000000 4.14631723437500 4.78613255625000 
 N -2.11687410000000 1.38062423437500 4.83541955625000 
 N -2.02487510000000 4.72332823437500 4.60522755625000 
 N -4.35421510000000 0.742955234375001 3.81646655625000 
 N -4.06951510000000 3.88464523437500 3.50160655625000 
 N -4.83924410000000 1.15861923437500 7.60276755625000 
 N -4.85284010000000 4.67825023437500 7.23524155625000 
 S -5.72716610000000 0.829169234375001 6.24588255625000 
 S -5.64062710000000 4.01546523437500 5.89529555625000 
 S -2.75809910000000 0.981096234375001 3.39777755625000 
 S -2.49675810000000 4.30633123437500 3.12250455625000 
 S -3.21436210000000 1.63679823437500 7.45229355625000 
 S -3.21839010000000 4.96154623437500 7.05989255625000 
