16

 C -2.99243624687500 1.22981511875000 5.32613396250000 
 C -2.91210824687500 5.09045211875000 5.60781696250000 
 C -4.15534624687500 0.719162118749996 4.62782796250000 
 C -4.15237424687500 4.55219911875000 5.11009896250000 
 N -2.08985224687500 1.65447711875000 4.46979096250000 
 N -2.02959824687500 5.33388011875000 4.67961996250000 
 N -4.04807624687500 0.737119118749996 3.30044796250000 
 N -4.12680524687500 4.25452711875000 3.81448496250000 
 N -4.69314224687500 0.643565118749996 7.12652096250000 
 N -4.41006124687500 5.04050611875000 7.66561596250000 
 S -5.39448524687500 0.247639118749996 5.68966796250000 
 S -5.40022124687500 4.51528411875000 6.37414896250000 
 S -2.63072424687500 1.46466311875000 2.88709496250000 
 S -2.72381024687500 4.83260811875000 3.25612796250000 
 S -3.17410224687500 1.23337011875000 7.03858496250000 
 S -2.79690824687500 5.33338211875000 7.30329296250000 
