16

 C -3.07504564687500 1.34958325312500 5.64791613750000 
 C -3.40653864687500 5.43263025312500 5.34729513750000 
 C -4.18502164687500 0.640279253125001 5.03656613750000 
 C -4.28366164687500 4.37875925312500 4.85968413750000 
 N -2.01203064687500 1.49810925312500 4.82139213750000 
 N -2.37677764687500 5.59323425312500 4.50879013750000 
 N -4.01640964687500 0.339742253125000 3.73620213750000 
 N -4.07690564687500 3.91675325312500 3.60974313750000 
 N -4.94293364687500 1.02484525312500 7.47969713750000 
 N -5.10921464687500 5.06618725312500 7.27828413750000 
 S -5.49895564687500 0.288637253125001 6.14516013750000 
 S -5.65702764687500 4.13231525312500 5.94600713750000 
 S -2.49564164687500 1.02712225312500 3.33748113750000 
 S -2.64899064687500 4.67796925312500 3.13313013750000 
 S -3.38529564687500 1.59217425312500 7.35388413750000 
 S -3.65049364687500 5.87285325312500 7.02859813750000 
