16

 C -3.08225802500001 1.38867402500000 5.32554849375000 
 C -3.09938002500001 5.28176602500000 6.02537649375000 
 C -4.24452202500001 0.878710024999999 4.67661649375000 
 C -4.36183102500001 4.95198702500000 5.38314449375000 
 N -2.05103902500001 1.77043302500000 4.56084949375000 
 N -2.07890302500001 5.33203502500000 5.16100549375000 
 N -4.07558902500001 0.835818024999999 3.33308949375000 
 N -4.28184702500001 4.82810502500000 4.05071249375000 
 N -4.79430802500001 1.12800102500000 7.21840549375000 
 N -5.07573602500001 5.07414402500000 7.78976849375000 
 S -5.59903302500001 0.667139024999999 5.84510749375000 
 S -5.80967902500001 4.85969802500000 6.30059249375000 
 S -2.49831202500001 1.39787602500000 3.05893949375000 
 S -2.67612502500001 5.11770102500000 3.64959549375000 
 S -3.24540202500001 1.59044202500000 7.06017549375000 
 S -3.42175002500001 5.51008102500000 7.76328649375000 
