16

 C -2.93857990312500 1.29748109375000 5.37250662187500 
 C -3.30457690312500 5.32999509375000 5.30296662187500 
 C -4.16911890312500 0.975148093750001 4.74403162187500 
 C -4.39356390312500 4.58524409375000 4.75993062187500 
 N -1.93432290312500 1.58718909375000 4.56856462187500 
 N -2.30902590312500 5.55898309375000 4.45470262187500 
 N -4.07511690312500 0.771763093750001 3.45395162187500 
 N -4.09624490312500 4.00627209375000 3.59430862187500 
 N -4.66478190312500 1.07766809375000 7.31410562187500 
 N -5.22256990312500 5.28911609375000 7.13221062187500 
 S -5.56146090312500 0.990588093750001 5.88904262187500 
 S -5.79892390312500 4.36405109375000 5.83448562187500 
 S -2.43973590312500 1.08914409375000 3.10249462187500 
 S -2.62344790312500 4.62855809375000 3.12511362187500 
 S -3.07028990312500 1.49562009375000 7.10386562187500 
 S -3.62982990312500 5.93417509375000 6.87363762187500 
