16

 C -3.09939125000000 1.39806218125000 5.42325070000000 
 C -3.48939525000000 5.20600118125000 5.36909470000000 
 C -4.37776725000000 1.03787618125000 4.92795970000000 
 C -4.59517525000000 4.57266318125000 4.81999670000000 
 N -2.12428025000000 1.40475618125000 4.47221770000000 
 N -2.50693625000000 5.51325618125000 4.51536170000000 
 N -4.35604325000000 0.760493181249998 3.59732570000000 
 N -4.46410925000000 4.39338718125000 3.53003470000000 
 N -4.82310525000000 1.13605418125000 7.46824470000000 
 N -4.89930625000000 4.50722518125000 7.32892970000000 
 S -5.64479925000000 0.933561181249999 6.01547470000000 
 S -5.83211525000000 4.20582318125000 6.05729170000000 
 S -2.88319625000000 0.975056181249998 3.05363370000000 
 S -2.99701125000000 4.98748218125000 3.06670070000000 
 S -3.17546725000000 1.59606718125000 7.21062770000000 
 S -3.39019425000000 5.21345818125000 7.04069170000000 
