16

 C -3.11862466250000 1.09196896875000 5.46467943125000 
 C -3.16278866250000 5.57249496875000 5.49149943125000 
 C -4.40416466250000 0.830191968749999 4.89453943125000 
 C -4.19462366250000 4.73974296875000 4.87350943125000 
 N -2.10771266250000 1.15424096875000 4.67915343125000 
 N -2.07514966250000 5.74643396875000 4.76125543125000 
 N -4.32981466250000 0.909934968750000 3.57646043125000 
 N -3.97152866250000 4.58536896875000 3.57274643125000 
 N -4.80971666250000 1.06646896875000 7.40093243125000 
 N -5.02681966250000 5.23023896875000 7.22783643125000 
 S -5.75018966250000 0.753273968749999 6.00909343125000 
 S -5.54476566250000 4.43924596875000 5.92301143125000 
 S -2.67064166250000 0.989508968749999 3.11335943125000 
 S -2.49369666250000 5.13192796875000 3.23891843125000 
 S -3.18237166250000 1.39469096875000 7.16899943125000 
 S -3.53739566250000 5.97570296875000 7.16041243125000 
