16

 C -3.17680143125000 1.13107907812500 5.42872366250000 
 C -3.09903043125000 5.23394807812500 5.56940366250000 
 C -4.27489243125000 0.520944078125002 4.78379866250000 
 C -4.33491543125000 4.82432907812500 4.89808066250000 
 N -2.09838843125000 1.27356407812500 4.66219766250000 
 N -2.03602343125000 5.21010207812500 4.80123666250000 
 N -3.98340843125000 0.128394078125002 3.54626366250000 
 N -4.16552943125000 4.59864807812500 3.64330166250000 
 N -5.04132443125000 1.23367107812500 7.12826666250000 
 N -4.90316843125000 5.25142507812500 7.40588066250000 
 S -5.71800943125000 0.601072078125002 5.78514066250000 
 S -5.61855943125000 4.72219407812500 6.03609366250000 
 S -2.43244543125000 0.503444078125002 3.25175066250000 
 S -2.57699043125000 4.86276507812500 3.25162266250000 
 S -3.41200743125000 1.54693707812500 7.09849166250000 
 S -3.31759243125000 5.58784507812500 7.24209666250000 
