16

 C -2.97283758437500 1.43542719687499 5.38359555000000 
 C -3.27709558437500 5.22318119687500 5.97037155000000 
 C -4.14400958437500 0.978827196874994 4.74265155000000 
 C -4.45750058437500 4.87405319687500 5.22271355000000 
 N -1.95814058437500 1.60894919687499 4.53525355000000 
 N -2.16581958437500 5.43137519687499 5.28555555000000 
 N -4.05636858437500 0.856207196874995 3.42795755000000 
 N -4.17680458437500 4.77730519687500 3.88958755000000 
 N -4.85401658437500 1.22602119687499 7.18188755000000 
 N -5.01930458437500 5.04548719687500 7.73801955000000 
 S -5.50872158437500 0.675032196874995 5.73006155000000 
 S -5.80839458437500 4.82223819687500 6.30888555000000 
 S -2.54354558437500 1.24251119687500 2.95678755000000 
 S -2.58933758437500 5.13727919687499 3.68442655000000 
 S -3.25022158437500 1.74158219687499 7.10067855000000 
 S -3.46208458437500 5.53491019687500 7.61846255000000 
