16

 C -2.93391706562500 1.42883970937500 5.73633694062500 
 C -3.17336006562500 4.67844570937500 5.59932594062500 
 C -4.18099506562500 1.21491970937500 5.11118994062500 
 C -4.44429906562500 4.56063770937500 4.93771894062500 
 N -1.85846706562500 1.48061270937500 4.94906994062500 
 N -2.08196306562500 4.69605170937500 4.82657894062500 
 N -4.09366406562500 1.03113670937500 3.78998994062500 
 N -4.37396406562500 4.63482770937500 3.60653494062500 
 N -4.72052306562500 1.50066670937500 7.62810094062500 
 N -4.97565706562500 4.63069370937500 7.48183594062500 
 S -5.52802806562500 1.25068770937500 6.24937994062500 
 S -5.78285006562500 4.40841870937500 6.05274294062500 
 S -2.51895106562500 1.28103570937500 3.37200894062500 
 S -2.73480506562500 4.70106370937500 3.28702294062500 
 S -3.05206206562500 1.64151670937500 7.53336694062500 
 S -3.37573206562500 4.94709070937500 7.31229394062500 
