16

 C -3.29298865625000 1.31850282500000 5.50202178750000 
 C -3.39688365625000 5.03456382500000 5.21099578750000 
 C -4.49217365625000 0.816828825000000 4.90947478750000 
 C -4.60268965625000 4.58164182500000 4.59144278750000 
 N -2.31474465625000 1.61510082500000 4.63918878750000 
 N -2.39439465625000 5.27110082500000 4.38355078750000 
 N -4.40960865625000 0.562321825000000 3.59125978750000 
 N -4.46515565625000 4.37628482500000 3.27403078750000 
 N -5.02788265625000 0.894174825000000 7.52615178750000 
 N -5.16295565625000 4.57046382500000 7.11287578750000 
 S -5.80072765625000 0.556644825000000 6.05684178750000 
 S -5.91344765625000 4.26290582500000 5.65536278750000 
 S -2.90794865625000 1.06867682500000 3.14644578750000 
 S -2.93735165625000 4.88302282500000 2.84991478750000 
 S -3.53720265625000 1.60761982500000 7.32558278750000 
 S -3.55569565625000 5.10051082500000 6.97844578750000 
