16

 C -3.10694031250000 1.61935258437500 5.43901075625000 
 C -3.05888831250000 5.26766758437500 5.51317175625000 
 C -4.35966031250000 1.33941358437500 4.80879775625000 
 C -4.29323631250000 4.93205258437500 4.81956375625000 
 N -2.09028131250000 1.69623158437500 4.58562775625000 
 N -2.04323331250000 5.41797858437500 4.68613175625000 
 N -4.30779731250000 1.27907058437500 3.48962075625000 
 N -4.23552031250000 4.84833658437500 3.49632875625000 
 N -4.92700931250000 1.32255658437500 7.28380175625000 
 N -4.72522131250000 4.94314758437500 7.42302575625000 
 S -5.68144031250000 1.26318258437500 5.84217675625000 
 S -5.58818831250000 4.76943058437500 5.95547075625000 
 S -2.67722031250000 1.53991358437500 2.99807875625000 
 S -2.62626031250000 5.27463058437500 3.13135075625000 
 S -3.29069031250000 1.57754658437500 7.21221475625000 
 S -3.04880731250000 5.10677658437500 7.22014075625000 
