16

 C -3.17037920000000 1.24015641875000 5.40688777187500 
 C -3.11312220000000 5.32239541875000 5.62231277187500 
 C -4.33058420000000 0.572293418749999 4.80444477187500 
 C -4.27358420000000 4.73546341875000 5.07838277187500 
 N -2.09877220000000 1.20650841875000 4.63335077187500 
 N -2.13071320000000 5.52487241875000 4.73756877187500 
 N -4.06917720000000 -6.432581250000347E-003 3.62813077187500 
 N -4.14446520000000 4.42653841875000 3.75938977187500 
 N -5.03695020000000 1.20184741875000 7.20786977187500 
 N -4.92992920000000 5.13795341875000 7.46025777187500 
 S -5.75937320000000 0.617197418749999 5.83543477187500 
 S -5.71088520000000 4.75314741875000 5.97799877187500 
 S -2.52583620000000 0.460749418750000 3.23454977187500 
 S -2.63528420000000 4.91958941875000 3.26782677187500 
 S -3.47804620000000 1.82187341875000 7.00051377187500 
 S -3.32580620000000 5.69857241875000 7.34631177187500 
