16

 C -2.88302242187500 1.32243630625000 5.31688610312500 
 C -3.16050242187500 5.01886630625000 5.38772110312500 
 C -4.17226142187500 0.912485306250003 4.84791210312500 
 C -4.42853242187500 4.44785030625000 4.86545710312500 
 N -1.96480142187500 1.44490330625000 4.35029910312500 
 N -2.27111142187500 5.31295830625000 4.44464410312500 
 N -4.26974242187500 0.623305306250003 3.51905510312500 
 N -4.50109742187500 4.32195530625000 3.55644210312500 
 N -4.53219042187500 1.29900830625000 7.33099810312500 
 N -4.83527042187500 4.95728030625000 7.32894210312500 
 S -5.40882442187500 0.889768306250003 6.00939810312500 
 S -5.62511142187500 4.19496830625000 6.10472410312500 
 S -2.71678742187500 1.02893030625000 2.88981910312500 
 S -3.01364242187500 4.94778630625000 3.00230610312500 
 S -2.95784642187500 1.67086130625000 7.08654210312500 
 S -3.23390642187500 5.40354530625000 7.02050610312500 
