16

 C -2.79608645312500 1.35255210000000 5.43046660625000 
 C -2.97998245312500 5.14528310000000 5.71286060625000 
 C -4.09310145312500 1.16449510000000 4.84871060625000 
 C -4.14118745312500 4.66435610000000 4.99408460625000 
 N -1.87918645312500 1.46215610000000 4.48026460625000 
 N -1.98421845312500 5.36081410000001 4.85963660625000 
 N -4.12188745312500 0.953486100000005 3.53112960625000 
 N -4.00354945312500 4.45635910000000 3.67381960625000 
 N -4.51233745312500 1.28389210000000 7.39692360625000 
 N -4.90191245312500 4.89355210000000 7.44961460625000 
 S -5.36861645312500 1.04363310000000 6.02560360625000 
 S -5.48296345312500 4.31383910000000 6.02304760625000 
 S -2.54456045312500 1.30248710000000 2.95906460625000 
 S -2.52476545312500 5.02704310000000 3.30180060625000 
 S -2.95048645312500 1.59781210000000 7.18736760625000 
 S -3.30839045312500 5.40086710000000 7.46920360625000 
