16

 C -3.36406802187500 1.25702836875000 5.40758800000000 
 C -3.17934002187500 5.01402736875000 5.29001200000000 
 C -4.52658502187500 0.684796368749998 4.71553200000000 
 C -4.43486202187500 4.63232336875000 4.68522300000000 
 N -2.30229102187500 1.34331536875000 4.64129600000000 
 N -2.08140502187500 5.03359436875000 4.55274300000000 
 N -4.33371002187500 0.388784368749998 3.43287500000000 
 N -4.25208002187500 4.29228936875000 3.39167900000000 
 N -5.24345202187500 1.08280836875000 7.14688100000000 
 N -4.98182502187500 4.95494436875000 7.20221300000000 
 S -5.90845102187500 0.489203368749998 5.75951100000000 
 S -5.79674202187500 4.80523736875000 5.78147800000000 
 S -2.82529802187500 0.902242368749999 3.07490700000000 
 S -2.65416802187500 4.57449636875000 3.04642600000000 
 S -3.69437802187500 1.46813136875000 7.10445900000000 
 S -3.30985502187500 5.53540836875000 6.92544600000000 
