16

 C -3.05763634375000 1.20921836250000 5.33276511250000 
 C -2.87321534375000 4.98603136250000 5.72383511250000 
 C -4.31253734375000 0.838841362500001 4.64329611250000 
 C -4.08295334375000 4.52678736250000 5.08909611250000 
 N -2.09103834375000 1.60382436250000 4.47178011250000 
 N -1.92182434375000 5.29678536250000 4.86527911250000 
 N -4.19186034375000 0.953404362500001 3.31660011250000 
 N -3.96852934375000 4.33673136250000 3.76432011250000 
 N -4.90051834375000 0.743870362500001 7.17164911250000 
 N -4.55286434375000 4.78172936250000 7.69267611250000 
 S -5.55520534375000 0.313500362500001 5.70162711250000 
 S -5.39380734375000 4.40772336250000 6.26409611250000 
 S -2.65380934375000 1.38641536250000 2.93207211250000 
 S -2.43814534375000 4.85558236250000 3.37207311250000 
 S -3.36434634375000 1.25447636250000 7.10395611250000 
 S -2.96787234375000 5.31371236250000 7.46678411250000 
