16

 C -3.54323224375000 1.80809964687500 5.32370201562500 
 C -3.19572324375000 4.96007464687500 5.71805801562500 
 C -4.63131424375000 1.18858564687500 4.63865701562500 
 C -4.46836524375000 4.67636964687500 5.10868201562500 
 N -2.49284024375000 2.19672164687500 4.59930601562500 
 N -2.19767424375000 5.03089164687500 4.88805201562500 
 N -4.36381724375000 0.994095646874998 3.38512701562500 
 N -4.39090624375000 4.45589164687500 3.82506201562500 
 N -5.34330624375000 1.04406564687500 7.07464501562500 
 N -5.04882024375000 4.98065064687500 7.57752801562500 
 S -6.02924124375000 0.724912646874997 5.57118901562500 
 S -5.88777324375000 4.72815264687500 6.19631801562500 
 S -2.85888124375000 1.53711364687500 3.04241101562500 
 S -2.84198624375000 4.78206164687500 3.35828401562500 
 S -3.78426124375000 1.76828864687500 7.05121601562500 
 S -3.43074224375000 5.16501464687500 7.46021901562500 
