16

 C -3.15929336250000 1.24743321250000 5.74061685937500 
 C -3.12058736250000 5.23745521250000 5.59171485937500 
 C -4.47590436250000 0.975816212500001 5.12798485937500 
 C -4.30537836250000 4.64529621250000 4.99542785937500 
 N -2.21161336250000 1.21033221250000 4.81291685937500 
 N -2.15079236250000 5.47667121250000 4.69857985937500 
 N -4.41972536250000 0.666019212500001 3.82543385937500 
 N -4.29622036250000 4.55800221250000 3.64913685937500 
 N -4.94739836250000 1.48974921250000 7.62133785937500 
 N -4.96155736250000 5.06453721250000 7.44460885937500 
 S -5.77166736250000 1.15959321250000 6.26801585937500 
 S -5.71183736250000 4.53476321250000 6.03575085937500 
 S -2.84044736250000 0.930348212500000 3.33955685937500 
 S -2.79561636250000 5.06832921250000 3.19926285937500 
 S -3.30434536250000 1.52546021250000 7.50109785937500 
 S -3.34327936250000 5.43526921250000 7.29652085937500 
