16

 C -3.16375379687500 1.38329815937500 5.59524835000000 
 C -2.87728179687500 5.27031015937500 5.41860135000000 
 C -4.37340879687500 0.790714159374998 5.05403635000000 
 C -4.12131279687500 4.88790515937500 4.87543635000000 
 N -2.25020879687500 1.63150115937500 4.65154635000000 
 N -1.97695679687500 5.54192115937500 4.51683335000000 
 N -4.34236879687500 0.633574159374998 3.70420735000000 
 N -4.17331579687500 4.83609815937500 3.56568135000000 
 N -4.68708479687500 1.22950515937500 7.56661835000000 
 N -4.63335179687500 5.00073015937500 7.40009135000000 
 S -5.61572179687500 0.618009159374998 6.31911135000000 
 S -5.38023479687500 4.67798115937500 5.98697135000000 
 S -2.80612179687500 1.05461815937500 3.22163235000000 
 S -2.67593679687500 5.28974215937500 3.01937035000000 
 S -3.19679979687500 1.72679115937500 7.24754235000000 
 S -3.01690079687500 5.38992815937500 7.16814235000000 
