16

 C -3.00602917812500 1.58207550625000 5.42052017500000 
 C -3.19235717812500 5.14348350625000 5.59061317500000 
 C -4.27401217812500 1.23578750625000 4.85737817500000 
 C -4.46086117812500 4.86815250625000 4.94583617500000 
 N -2.07189417812500 1.62644250625000 4.51333117500000 
 N -2.15636117812500 5.30557050625000 4.77056617500000 
 N -4.20381417812500 0.908449506250001 3.58617817500000 
 N -4.34198517812500 4.72917950625000 3.64220417500000 
 N -4.59311617812500 1.35699750625000 7.37599817500000 
 N -4.98976017812500 4.68186150625000 7.39995217500000 
 S -5.55515517812500 1.08401750625000 6.00542417500000 
 S -5.74738217812500 4.35187350625000 6.00872917500000 
 S -2.66171817812500 1.18465850625000 3.04483917500000 
 S -2.78655517812500 4.99656450625000 3.21538017500000 
 S -3.02786117812500 1.90743450625000 7.14483817500000 
 S -3.40677117812500 5.11606050625000 7.32994417500000 
