16

 C -3.16349787812500 1.62180771875000 5.56701825312500 
 C -3.19033587812500 5.01603771875000 5.53359125312500 
 C -4.50388187812500 1.46125771875000 5.03666125312500 
 C -4.39910287812500 4.64179771875000 4.85491925312500 
 N -2.20635787812500 1.76637371875000 4.67505925312500 
 N -2.17219687812500 5.27812471875000 4.71212925312500 
 N -4.49229387812500 1.32376471875000 3.70778425312500 
 N -4.28948687812500 4.51278571875000 3.53180425312500 
 N -4.69941787812500 1.61724471875000 7.64926625312500 
 N -4.87318487812500 4.58446871875000 7.38087725312500 
 S -5.68528387812500 1.48480971875000 6.31713325312500 
 S -5.68772787812500 4.47799871875000 5.97267225312500 
 S -2.91662187812500 1.59119771875000 3.15083025312500 
 S -2.76329887812500 5.03562571875000 3.18320125312500 
 S -3.05560187812500 1.63766871875000 7.31104825312500 
 S -3.20740087812500 4.82927071875000 7.25917325312500 
