16

 C -3.23531455625000 0.899449437500003 5.45878329687500 
 C -3.34964855625000 5.03134743750000 5.53088929687500 
 C -4.52747955625000 0.684917437500003 4.78623929687500 
 C -4.51897655625000 4.55835643750000 4.85117629687500 
 N -2.22552455625000 1.07967243750000 4.63569329687500 
 N -2.25976355625000 5.33017943750000 4.77277129687500 
 N -4.41982355625000 0.684163437500003 3.46884429687500 
 N -4.33071655625000 4.42261943750000 3.53036929687500 
 N -5.04243855625000 0.646733437500003 7.26718129687500 
 N -4.98230355625000 4.51048843750000 7.42166829687500 
 S -5.89502155625000 0.470178437500003 5.86599529687500 
 S -5.86724655625000 4.36766743750000 6.00796529687500 
 S -2.85068455625000 0.982023437500002 3.07036929687500 
 S -2.78819655625000 4.93488743750000 3.24885529687500 
 S -3.42126355625000 0.804477437500003 7.15957029687500 
 S -3.39176555625000 4.97048143750000 7.27776329687500 
