16

 C -3.39571109375000 1.30878140937500 5.32624207812500 
 C -3.21377809375000 5.49497240937500 5.68536707812500 
 C -4.55826109375000 0.668665409374998 4.71112707812500 
 C -4.37656809375000 5.10186440937500 4.90499307812500 
 N -2.33946909375000 1.48337740937500 4.54844807812500 
 N -2.07999609375000 5.61373440937500 5.00710607812500 
 N -4.37713209375000 0.407765409374997 3.40195307812500 
 N -4.08320209375000 5.10789140937500 3.59921007812500 
 N -5.05754409375000 1.11127640937500 7.24690007812500 
 N -5.11844209375000 5.12925540937500 7.29962207812500 
 S -5.75265909375000 0.430075409374997 5.87382007812500 
 S -5.92316609375000 5.07133140937500 5.86340007812500 
 S -2.88540309375000 1.02024540937500 3.04072907812500 
 S -2.47294609375000 5.40120340937500 3.37325807812500 
 S -3.47199509375000 1.54532140937500 7.02585607812500 
 S -3.50942309375000 5.36831140937500 7.36043607812500 
