16

 C -3.24137884687500 1.58963632812500 5.45018729062500 
 C -2.97154284687500 5.15724632812500 5.59598829062500 
 C -4.48373884687500 1.08064332812500 4.90828529062500 
 C -4.17540584687500 4.61900432812500 5.00828929062500 
 N -2.24128584687500 1.75569832812500 4.56911829062500 
 N -1.95421684687500 5.16130032812500 4.71299629062500 
 N -4.44337684687500 0.927405328124998 3.61979229062500 
 N -4.11951584687500 4.45434432812500 3.66695829062500 
 N -4.85810584687500 1.33141332812500 7.46258729062500 
 N -4.76707084687500 5.09936332812500 7.53427529062500 
 S -5.76890084687500 0.926592328124998 6.17061129062500 
 S -5.58167684687500 4.71219732812500 6.10596029062500 
 S -2.97276284687500 1.42597932812500 3.06246729062500 
 S -2.52179884687500 4.69795832812500 3.23884029062500 
 S -3.24258184687500 1.74508332812500 7.18388729062500 
 S -3.13924084687500 5.36519532812500 7.26146329062500 
