16

 C -3.26712512812500 1.13416385937500 5.48959374375000 
 C -2.78630512812500 5.07134085937500 5.48569874375000 
 C -4.55585112812500 0.680455859374998 4.97028774375000 
 C -3.98675312812500 4.88789785937500 4.69839574375000 
 N -2.35444212812500 1.20259185937500 4.57587774375000 
 N -1.72893512812500 5.34682985937500 4.72983474375000 
 N -4.55698212812500 0.478337859374998 3.67119474375000 
 N -3.82031312812500 4.85136785937500 3.36617274375000 
 N -4.76366012812500 1.39176285937500 7.40903274375000 
 N -4.77033912812500 5.09804885937500 7.18415174375000 
 S -5.71657912812500 0.604414859374998 6.23199474375000 
 S -5.41762612812500 4.63736285937500 5.69529874375000 
 S -3.00954012812500 0.861905859374998 3.12115974375000 
 S -2.20585812812500 5.15406185937500 3.15724474375000 
 S -3.11334512812500 1.29602885937500 7.20101674375000 
 S -3.11533712812500 5.11250585937500 7.16296474375000 
