16

 C -3.07546364375000 1.34707173750000 5.63313465312500 
 C -3.40048564375000 5.43430273750000 5.34939465312500 
 C -4.18796564375000 0.638800737500000 5.03382565312500 
 C -4.28408464375000 4.38826273750000 4.86454565312500 
 N -2.00644264375000 1.49582473750000 4.82933465312500 
 N -2.36591264375000 5.58140873750000 4.49769565312500 
 N -4.01241864375000 0.343333737500001 3.72554165312500 
 N -4.06313464375000 3.90206973750000 3.61401465312500 
 N -4.93566964375000 1.03385473750000 7.47092865312500 
 N -5.10873864375000 5.07193473750000 7.28912165312500 
 S -5.49613164375000 0.288865737500001 6.13547465312500 
 S -5.63934264375000 4.13382473750000 5.95131065312500 
 S -2.49324664375000 1.01942173750000 3.33616065312500 
 S -2.64295164375000 4.67027773750000 3.13158065312500 
 S -3.37953264375000 1.59651473750000 7.37109365312500 
 S -3.64669764375000 5.87592673750000 7.02944565312500 
