16

 C -3.32288042500000 1.00084629062500 5.64200902812500 
 C -2.89456842500000 5.07828429062500 5.57084702812500 
 C -4.49500142500000 0.597240290625001 4.95499102812500 
 C -4.13556942500000 4.68039729062500 4.93944102812500 
 N -2.24885742500000 1.11020429062500 4.89306402812500 
 N -1.88354342500000 5.21493229062500 4.72934202812500 
 N -4.35714142500000 0.395732290625001 3.64810602812500 
 N -4.05294542500000 4.41732029062500 3.64079102812500 
 N -5.19045742500000 0.953020290625001 7.30064502812500 
 N -4.71692842500000 4.79361629062500 7.38347702812500 
 S -5.81793542500000 0.284006290625001 5.87933402812500 
 S -5.43255342500000 4.28002429062500 5.96577902812500 
 S -2.76198342500000 0.886605290625001 3.34027002812500 
 S -2.47835342500000 4.77394329062500 3.22610302812500 
 S -3.57996042500000 1.26300029062500 7.30463802812500 
 S -3.15347742500000 5.36456729062500 7.29588302812500 
