16

 C -3.16528765937500 1.12759634687500 5.42222947187500 
 C -3.10746465937500 5.22297734687500 5.57155947187500 
 C -4.27319765937500 0.532880346874995 4.78760847187500 
 C -4.34190765937500 4.82441934687500 4.89423447187500 
 N -2.07833165937500 1.26894034687500 4.66137547187500 
 N -2.04361765937500 5.19001134687500 4.79565947187500 
 N -3.98639465937500 0.132477346874995 3.54428547187500 
 N -4.17280765937500 4.61436634687500 3.62863847187500 
 N -5.04877965937500 1.23743334687499 7.12012647187500 
 N -4.89835065937500 5.25991634687500 7.41370947187500 
 S -5.71258765937500 0.592430346874996 5.77823147187500 
 S -5.62388665937500 4.71738034687500 6.03696947187500 
 S -2.43460365937500 0.511322346874995 3.24996147187500 
 S -2.56079765937500 4.85699934687500 3.24997547187500 
 S -3.41033365937500 1.53283334687500 7.11121847187500 
 S -3.30759665937500 5.58142334687499 7.23624647187500 
