16

 C -3.16227573750000 1.40414091875000 5.54901096562500 
 C -3.36114373750000 5.13992691875000 5.43900396562500 
 C -4.33504073750000 0.940776918749997 4.87599396562500 
 C -4.56495773750000 4.80597691875000 4.70541196562500 
 N -2.12747973750000 1.63476291875000 4.76157296562500 
 N -2.32190673750000 5.48725491875000 4.66478296562500 
 N -4.17546973750000 0.676193918749997 3.57989396562500 
 N -4.41328673750000 4.73251991875000 3.37109096562500 
 N -4.96016673750000 1.24013991875000 7.47330696562500 
 N -5.10336773750000 4.77863791875000 7.27737396562500 
 S -5.66648573750000 0.626887918749998 6.09025196562500 
 S -5.85746673750000 4.44745891875000 5.82735296562500 
 S -2.59000973750000 1.26112191875000 3.16698696562500 
 S -2.81971373750000 5.20093391875000 3.10038296562500 
 S -3.34207273750000 1.60947491875000 7.29771496562500 
 S -3.51819073750000 5.26737091875000 7.15015496562500 
