16

 C -3.07520055312500 1.28000783125000 5.70886972812500 
 C -3.08655055312500 4.98514583125000 5.49895572812500 
 C -4.30919655312500 0.746096831249999 5.08682172812500 
 C -4.26837155312500 4.41021383125000 4.87008072812500 
 N -2.05618255312500 1.28168483125000 4.84849772812500 
 N -1.98219755312500 5.00734083125000 4.76499572812500 
 N -4.17296955312500 0.490305831250000 3.78107672812500 
 N -4.08188855312500 4.07707583125000 3.61618772812500 
 N -4.79182755312500 1.05834183125000 7.57886672812500 
 N -4.88966355312500 4.89500983125000 7.29536572812500 
 S -5.65337155312500 0.708368831250000 6.17273272812500 
 S -5.59742655312500 4.19997383125000 5.97343572812500 
 S -2.59798055312500 0.725110831249999 3.34401572812500 
 S -2.50305255312500 4.42571583125000 3.27662972812500 
 S -3.20514055312500 1.64752683125000 7.34878672812500 
 S -3.29274855312500 5.37824183125000 7.13973172812500 
