16

 C -3.15725495625000 1.30507828437500 5.29989353437500 
 C -2.88446195625000 4.96418028437501 5.65120753437500 
 C -4.30429995625000 0.774043284375005 4.60090353437500 
 C -4.14345795625000 4.52011228437501 5.08640653437500 
 N -2.13460495625000 1.62272428437500 4.50706553437500 
 N -1.99584595625000 5.23681228437500 4.71712153437500 
 N -4.07433395625000 0.569874284375005 3.29730353437500 
 N -4.13297195625000 4.25027528437500 3.78158453437500 
 N -4.82824495625000 0.760430284375005 7.07946753437500 
 N -4.54574995625000 4.65742428437501 7.66939053437500 
 S -5.61501595625000 0.299938284375004 5.65715653437500 
 S -5.42319595625000 4.48889728437500 6.23848553437500 
 S -2.61475295625000 1.27372928437500 3.00980653437500 
 S -2.65980395625000 4.79249528437501 3.26882953437500 
 S -3.32632295625000 1.43387728437500 6.95840553437500 
 S -2.92922095625000 5.10709428437500 7.40175453437500 
