16

 C -2.93356942187500 1.81915450625000 5.65135020312500 
 C -3.30226542187500 5.50512550625000 5.31475720312500 
 C -4.21638642187500 1.61742950625000 5.03016620312500 
 C -4.46099442187500 4.92199250625000 4.71435920312500 
 N -1.90291342187500 1.90294450625000 4.82387420312500 
 N -2.34768642187500 5.79690750625000 4.44719520312500 
 N -4.17005542187500 1.58095250625000 3.70593720312500 
 N -4.39052942187500 4.81065250625000 3.41764820312500 
 N -4.62610842187500 1.60675950625000 7.52819120312500 
 N -4.89971442187500 5.05224550625000 7.25648220312500 
 S -5.51368642187500 1.42031250625000 6.15189520312500 
 S -5.65555742187500 4.46343650625000 5.88648920312500 
 S -2.50620142187500 1.82516450625000 3.33068020312500 
 S -2.86494042187500 5.26397450625000 2.96535720312500 
 S -3.00157342187500 1.95374150625000 7.41357820312500 
 S -3.37350842187500 5.62574550625000 7.04130220312500 
