16

 C -3.22268158125000 1.29915849062500 5.41683750312500 
 C -3.18805358125000 5.36953149062500 5.78089350312500 
 C -4.44776758125000 0.740594490624999 4.77800250312500 
 C -4.34108658125000 5.16697449062500 4.94840050312500 
 N -2.27596358125000 1.67963249062500 4.50741450312500 
 N -2.09544858125000 5.57855349062500 5.03912050312500 
 N -4.28544358125000 0.631424490624999 3.47943750312500 
 N -4.16031758125000 5.00995549062500 3.61459050312500 
 N -5.12438558125000 1.19397549062500 7.16682350312500 
 N -5.14623158125000 5.21658049062500 7.42590750312500 
 S -5.80810058125000 0.363798490624998 5.85994650312500 
 S -5.73766658125000 5.07988249062500 5.90623550312500 
 S -2.76685358125000 1.14069449062500 3.05737550312500 
 S -2.54372358125000 5.35211549062500 3.47728450312500 
 S -3.54521658125000 1.48009849062500 7.14383150312500 
 S -3.47907258125000 5.51027249062500 7.46256350312500 
