16

 C -3.03513358750000 1.30610409062500 5.77316993750000 
 C -3.19272058750000 5.08795209062500 5.56417693750000 
 C -4.35000058750000 0.890239090625002 5.16599793750000 
 C -4.44180058750000 4.61158409062500 4.96090793750000 
 N -1.99317258750000 1.13742209062500 4.94825493750000 
 N -2.18182458750000 5.13480809062500 4.69931193750000 
 N -4.27244258750000 0.573341090625002 3.87249493750000 
 N -4.39776558750000 4.54834409062500 3.63179593750000 
 N -4.72260558750000 1.48000809062500 7.66829393750000 
 N -4.81482958750000 4.98438009062500 7.44371593750000 
 S -5.60520658750000 1.03358009062500 6.30059793750000 
 S -5.71976558750000 4.51725409062500 6.15541593750000 
 S -2.66684958750000 0.652800090625002 3.48992493750000 
 S -2.80589758750000 4.75591309062500 3.19415393750000 
 S -3.12207958750000 1.81610009062500 7.41584393750000 
 S -3.21356258750000 5.38797609062500 7.23329993750000 
