16

 C -3.00416898750000 1.25862043125000 5.55128136250000 
 C -3.17621998750000 5.42471943125000 5.29426836250000 
 C -4.16848398750000 0.860227431249999 4.85687936250000 
 C -4.30363398750000 4.80178743125000 4.65585636250000 
 N -1.95625298750000 1.34060443125000 4.68322236250000 
 N -2.13041098750000 5.56799243125000 4.47358436250000 
 N -4.11350198750000 0.746060431249999 3.52584136250000 
 N -4.25805698750000 4.71936243125000 3.33405336250000 
 N -4.89879098750000 1.04111443125000 7.32035136250000 
 N -4.83464498750000 4.94394043125000 7.23375836250000 
 S -5.64014998750000 0.850440431249999 5.88140936250000 
 S -5.60152198750000 4.57077343125000 5.80429936250000 
 S -2.43340498750000 0.950225431250000 3.18192936250000 
 S -2.69590298750000 5.21869543125000 2.92318836250000 
 S -3.31268698750000 1.52423443125000 7.24845936250000 
 S -3.26609298750000 5.47174843125000 7.07629036250000 
