16

 C -3.13051199687500 1.25845884687500 5.65710082187500 
 C -2.99040299687500 5.11697784687500 5.49973082187500 
 C -4.41340899687500 1.12284484687500 4.95032782187500 
 C -4.24351099687500 4.84036284687500 4.86918182187500 
 N -2.08048599687500 1.57744984687500 4.88194182187500 
 N -1.96915599687500 5.33574984687500 4.67889182187500 
 N -4.33124899687500 1.28458984687500 3.64806182187500 
 N -4.14978299687500 4.68447184687500 3.56157282187500 
 N -5.05449099687500 1.03120784687500 7.38553882187500 
 N -4.92247799687500 5.12320984687500 7.37651782187500 
 S -5.85635699687500 0.955779846875001 5.91861482187500 
 S -5.59054699687500 4.62645284687500 5.89902182187500 
 S -2.75634699687500 1.67463684687500 3.32321382187500 
 S -2.64621599687500 5.16262184687500 3.12633582187500 
 S -3.37173699687500 1.26617284687500 7.38862382187500 
 S -3.32742199687500 5.52489784687500 7.14131182187500 
