16

 C -3.30002509375000 1.00360990625000 5.41416400000000 
 C -3.26500309375000 5.17363490625000 5.40871100000000 
 C -4.52896109375000 0.749471906249997 4.72218500000000 
 C -4.36567409375000 4.57580990625000 4.71766400000000 
 N -2.17248809375000 1.12467790625000 4.69065200000000 
 N -2.27208309375000 5.54961590625000 4.55775600000000 
 N -4.37479909375000 0.640972906249996 3.38676500000000 
 N -4.29247509375000 4.54654390625000 3.39578300000000 
 N -5.16776309375000 0.781672906249996 7.27531300000000 
 N -5.10932209375000 4.63892590625000 7.16916700000000 
 S -5.94538709375000 0.487357906249996 5.80017800000000 
 S -5.57142809375000 3.93205790625000 5.70766600000000 
 S -2.69675209375000 0.920479906249996 3.15916800000000 
 S -2.78343109375000 5.20661590625000 3.03156100000000 
 S -3.52414609375000 1.01304490625000 7.15305400000000 
 S -3.61975309375000 5.37805490625000 7.08592800000000 
