16

 C -2.86546857187500 1.91514764687500 5.40029694062500 
 C -3.08414757187500 5.14718364687500 5.49028194062500 
 C -4.10271257187500 1.49649764687500 4.80615194062500 
 C -4.30065857187500 4.90664064687500 4.76836494062500 
 N -1.87617757187500 2.04106264687500 4.54147494062500 
 N -2.00083357187500 5.18688764687500 4.72143394062500 
 N -4.00203157187500 1.18375064687500 3.51631894062500 
 N -4.10677457187500 4.83077364687500 3.44165394062500 
 N -4.59023057187500 1.76756964687500 7.27545894062500 
 N -4.93996357187500 4.87975064687500 7.22038494062500 
 S -5.41516657187500 1.41769964687500 5.86977194062500 
 S -5.65620557187500 4.57171664687500 5.77461994062500 
 S -2.42817757187500 1.62471564687500 3.07026594062500 
 S -2.48145757187500 4.90467464687500 3.14338894062500 
 S -3.00712657187500 2.27447264687500 7.10152494062500 
 S -3.31290357187500 5.31450664687500 7.22464894062500 
