16

 C -3.18345345625000 1.11695084375000 5.51423266562500 
 C -3.23316645625000 4.66715484375000 5.60591966562500 
 C -4.30254745625000 0.685318843750000 4.73897866562500 
 C -4.52560145625000 4.38736284375000 5.04969166562500 
 N -2.07825045625000 1.44927884375000 4.82261066562500 
 N -2.24839545625000 4.76657884375000 4.73861766562500 
 N -4.14907345625000 0.817038843749999 3.41744666562500 
 N -4.50528445625000 4.45256884375000 3.71815366562500 
 N -5.04406645625000 0.289104843749999 7.15258266562500 
 N -4.96922945625000 4.67679384375000 7.56923566562500 
 S -5.67178945625000 7.698384374999945E-002 5.64658866562500 
 S -5.83292245625000 4.55434684375000 6.17605266562500 
 S -2.58697045625000 1.33629484375000 3.19912466562500 
 S -2.95091945625000 4.67842284375000 3.22638766562500 
 S -3.53862745625000 0.825717843749999 7.21348066562500 
 S -3.31568345625000 4.95904584375000 7.31393266562500 
