16

 C -2.99052245937500 1.05414673437500 5.82314958437500 
 C -3.23724045937500 4.97215773437500 5.54717458437500 
 C -4.20043145937500 0.677677734375001 5.15621258437500 
 C -4.39291245937500 4.39352473437500 4.88304658437500 
 N -1.94422345937500 1.20447673437500 4.99017958437500 
 N -2.26508445937500 5.33523873437500 4.71663158437500 
 N -4.07888245937500 0.407794734375001 3.86016458437500 
 N -4.23438545937500 4.34050773437500 3.57479258437500 
 N -4.88753645937500 0.959248734375000 7.64727958437500 
 N -4.91604845937500 4.56408073437500 7.41011358437500 
 S -5.59498445937500 0.491248734375000 6.20985358437500 
 S -5.65950845937500 4.05626773437500 5.99412858437500 
 S -2.55212945937500 0.873924734375001 3.47014958437500 
 S -2.76523645937500 5.00077973437500 3.16587958437500 
 S -3.20590845937500 1.33112673437500 7.58198458437500 
 S -3.43517445937500 5.34083873437500 7.27442758437500 
