16

 C -3.41337194062500 1.40826924687500 5.44580586875000 
 C -3.13819894062500 4.88457024687501 4.97619186875000 
 C -4.45961494062500 0.646286246875006 4.80543686875000 
 C -4.30962394062500 4.44115524687501 4.30315786875000 
 N -2.45684594062500 1.80292724687501 4.59558186875000 
 N -2.10763794062500 5.15879924687501 4.20497486875000 
 N -4.21746094062500 0.334646246875005 3.52157986875000 
 N -4.24487194062500 4.44517724687501 2.94295286875000 
 N -5.16487494062500 0.787766246875005 7.29637886875000 
 N -4.94378294062500 4.61828624687501 6.84783986875000 
 S -5.77953094062500 0.259276246875006 5.85663186875000 
 S -5.53947594062500 3.93081124687501 5.45938886875000 
 S -2.89164794062500 1.16999224687501 3.07926286875000 
 S -2.67263794062500 4.89117724687500 2.65696586875000 
 S -3.58913394062500 1.43524724687501 7.19961886875000 
 S -3.38193694062500 5.20357524687500 6.67530586875000 
