16

 C -2.97216583437500 1.32787479687500 5.44268840937500 
 C -3.35198583437500 5.36863379687500 5.27585140937500 
 C -4.16670683437500 0.950906796875000 4.73648640937500 
 C -4.40020183437500 4.50096679687500 4.76868940937500 
 N -1.96786083437500 1.57529879687500 4.60893640937500 
 N -2.28060283437500 5.46570179687500 4.46613340937500 
 N -4.03980183437500 0.800449796874999 3.40554140937500 
 N -4.10720183437500 4.01432779687500 3.57036940937500 
 N -4.69083683437500 1.16122379687500 7.32878340937500 
 N -5.21719483437500 5.23447179687500 7.08748440937500 
 S -5.48054883437500 0.988031796874999 5.88644540937500 
 S -5.81598783437500 4.34137879687500 5.81771740937500 
 S -2.36319083437500 1.12158479687500 3.05371740937500 
 S -2.68038883437500 4.54661579687500 3.09852340937500 
 S -3.10555883437500 1.55774479687500 7.08783340937500 
 S -3.67458583437500 5.94394479687500 6.85497440937500 
