16

 C -2.83533226562500 1.67254420937500 5.71944099687500 
 C -3.03108926562500 5.27351820937500 5.69060699687500 
 C -4.14566526562500 1.62911220937500 5.09289199687500 
 C -4.33952926562500 4.97577820937500 5.16072199687500 
 N -1.82236926562500 1.70941320937500 4.84723199687500 
 N -2.07754726562500 5.32385320937500 4.76064499687500 
 N -4.18008826562500 1.54633220937500 3.74523599687500 
 N -4.40994526562500 4.74567520937500 3.85988799687500 
 N -4.63028126562500 1.65228420937500 7.63049699687500 
 N -4.83805226562500 5.26350920937500 7.60091399687500 
 S -5.49717026562500 1.41767020937500 6.20139999687500 
 S -5.65765826562500 4.76313420937500 6.27764699687500 
 S -2.57108526562500 1.80172420937500 3.32577599687500 
 S -2.85391626562500 5.01493020937500 3.32508699687500 
 S -2.97049226562500 1.85251420937500 7.49389299687500 
 S -3.25892726562500 5.59595120937500 7.39605399687500 
