16

 C -2.88043998125000 1.30677215000000 5.49455503125000 
 C -3.01915298125000 5.18829915000000 5.62143003125000 
 C -4.06229698125000 0.843341150000002 4.82476503125000 
 C -4.13850998125000 4.55862615000000 4.97977503125000 
 N -1.79585798125000 1.38688815000000 4.67515603125000 
 N -1.97226198125000 5.42991615000000 4.80565603125000 
 N -3.91167698125000 0.713364150000003 3.51436703125000 
 N -3.94170098125000 4.31216715000000 3.69382703125000 
 N -4.76596998125000 1.07706515000000 7.41277403125000 
 N -4.72301198125000 4.65079315000000 7.50772503125000 
 S -5.50071998125000 0.740416150000002 5.91431703125000 
 S -5.45262598125000 4.34044715000000 6.06646503125000 
 S -2.33518198125000 0.946695150000003 3.12232703125000 
 S -2.44443598125000 4.88858415000000 3.29592703125000 
 S -3.12937898125000 1.34373515000000 7.26873403125000 
 S -3.20897098125000 5.39906015000000 7.39059303125000 
