16

 C -3.14004176250000 1.44019249687500 5.32885069375000 
 C -3.03780476250000 4.89707349687499 5.56810069375000 
 C -4.27545776250000 0.639614496874995 4.72666469375000 
 C -4.35998376250000 4.71920749687499 5.01474169375000 
 N -2.15674076250000 1.69260449687499 4.46970169375000 
 N -2.05770576250000 4.92316149687500 4.66464069375000 
 N -4.10777076250000 0.284431496874995 3.47303669375000 
 N -4.41003876250000 4.57749649687500 3.70111869375000 
 N -4.92697976250000 1.06872549687500 7.14351669375000 
 N -4.68486076250000 4.87155149687500 7.55190469375000 
 S -5.52442176250000 0.261453496874995 5.81724569375000 
 S -5.56451776250000 4.41818249687500 6.22854169375000 
 S -2.71887476250000 1.01572449687499 2.98953969375000 
 S -2.82979876250000 4.77715449687499 3.16869869375000 
 S -3.35490076250000 1.68800549687499 7.01715869375000 
 S -3.06054276250000 5.11345049687500 7.25126569375000 
