16

 C -3.28854411875000 1.47347739062500 5.40647326875000 
 C -3.34373611875000 5.31806739062500 5.43490226875000 
 C -4.45389411875000 0.795128390625001 4.91965126875000 
 C -4.45938211875000 4.75308439062500 4.76827526875000 
 N -2.36716011875000 1.65677939062500 4.46523426875000 
 N -2.37581811875000 5.58698039062500 4.58117226875000 
 N -4.34732311875000 0.483259390625001 3.62454726875000 
 N -4.44424411875000 4.72193839062500 3.46401726875000 
 N -4.77742811875000 1.14354539062500 7.48811326875000 
 N -5.05411611875000 4.68415639062500 7.21099826875000 
 S -5.61985511875000 0.498290390625002 6.18695526875000 
 S -5.66997211875000 4.15138239062500 5.80056326875000 
 S -2.86389611875000 1.04716639062500 3.03379426875000 
 S -2.94928311875000 5.20239739062500 3.06254826875000 
 S -3.37145811875000 1.97437439062500 7.03023526875000 
 S -3.61667811875000 5.52675039062500 7.15518126875000 
