16

 C -3.29790913437500 1.51974913437500 5.35207379687500 
 C -3.34640313437500 5.37640413437500 5.44333179687500 
 C -4.41133513437500 0.794280134374996 4.85262679687500 
 C -4.52845313437500 4.82373713437500 4.80216779687500 
 N -2.28575213437500 1.70587813437500 4.49408979687500 
 N -2.32967413437500 5.60718013437500 4.60212579687500 
 N -4.39184413437500 0.503820134374996 3.52627079687500 
 N -4.46749413437500 4.71294813437500 3.49793879687500 
 N -4.83754213437500 1.16578213437500 7.41950879687500 
 N -5.04696713437500 4.71690713437500 7.32013779687500 
 S -5.63281113437500 0.481679134374996 6.12278479687500 
 S -5.73058613437500 4.17056013437500 5.85003079687500 
 S -2.93593913437500 1.09766813437500 3.02798279687500 
 S -2.94971813437500 5.27950213437500 3.07643379687500 
 S -3.39519413437500 1.92732113437500 7.10432579687500 
 S -3.54799313437500 5.49294613437500 7.20491679687500 
