16

 C -3.24551190625000 1.49296865625000 5.39561505312500 
 C -3.37891290625000 5.33931065625000 5.43956205312500 
 C -4.37928690625000 0.843415656249996 4.85807705312500 
 C -4.49297990625000 4.70339565625000 4.82401505312500 
 N -2.35045290625000 1.82118565625000 4.46701405312500 
 N -2.41161190625000 5.77063665625000 4.65236605312500 
 N -4.35745290625000 0.658991656249996 3.55598505312500 
 N -4.36060890625000 4.67345865625000 3.49346405312500 
 N -4.93365190625000 1.17020265625000 7.31151405312500 
 N -5.00741090625000 4.85088165625000 7.38981705312500 
 S -5.64465590625000 0.453691656249997 5.94505205312500 
 S -5.76092090625000 4.33746065625000 6.03573305312500 
 S -2.96240690625000 1.22741465625000 3.01425905312500 
 S -2.90129090625000 5.30634265625000 3.13780605312500 
 S -3.35192590625000 1.72992165625000 7.08093205312500 
 S -3.45914790625000 5.39582565625000 7.18145805312500 
