16

 C -3.08213810625000 1.50641695312500 5.30536273750000 
 C -3.24155010625000 5.21524295312500 5.73132073750000 
 C -4.20498010625000 0.717524953125004 4.85700073750000 
 C -4.43924110625000 4.68536895312500 5.08272373750000 
 N -2.12229310625000 1.64057895312500 4.39591673750000 
 N -2.16294910625000 5.40683995312500 4.94230373750000 
 N -4.11323310624999 0.169208953125004 3.65522573750000 
 N -4.20954610625000 4.46805695312500 3.77524973750000 
 N -4.96540410624999 1.44958595312500 7.17739473750000 
 N -4.95407210625000 5.01923095312500 7.56529273750000 
 S -5.63218210624999 0.803989953125004 5.80613873750000 
 S -5.84869010624999 4.55875995312500 6.20296473750000 
 S -2.65095410625000 0.736765953125004 3.10213173750000 
 S -2.59164710625000 5.01591795312500 3.42862573750000 
 S -3.40019210625000 2.05133895312500 7.02259573750000 
 S -3.46954910625000 5.72250295312500 7.34878873750000 
