16

 C -2.92283713750000 1.52494194375000 5.62201574375000 
 C -3.03412313750000 5.26616794375000 5.56287074375000 
 C -4.12926913750000 0.980067943749998 4.97783974375000 
 C -4.28394013750000 4.92229294375000 4.92983174375000 
 N -1.92211713750000 1.85060894375000 4.81303374375000 
 N -1.99715013750000 5.36669194375000 4.70661674375000 
 N -3.99899313750000 0.827320943749998 3.65074674375000 
 N -4.20138413750000 4.71583794375000 3.61099074375000 
 N -4.77245513750000 1.47954794375000 7.39921074375000 
 N -4.85542013750000 5.36926394375000 7.38477074375000 
 S -5.44449513750000 0.791497943749999 6.05007474375000 
 S -5.59456513750000 4.84935294375000 6.00530274375000 
 S -2.49496113750000 1.29264294375000 3.32738074375000 
 S -2.62583113750000 4.98843594375000 3.18799374375000 
 S -3.17651813750000 2.08137094375000 7.23004474375000 
 S -3.27378213750000 5.73434594375000 7.29193574375000 
