16

 C -3.04660372187500 1.81674384062500 5.48453256562500 
 C -3.08659472187500 5.34682384062500 5.65723556562500 
 C -4.30152672187500 1.37989284062500 4.94959956562500 
 C -4.24141072187500 4.83323184062500 4.96071756562500 
 N -2.05425372187500 1.82910784062500 4.61239256562500 
 N -2.03590872187500 5.48859784062500 4.85829556562500 
 N -4.31106972187500 1.11567384062500 3.62754656562500 
 N -4.11108972187500 4.64446584062500 3.63745556562500 
 N -4.66006072187500 1.33795584062500 7.57742956562500 
 N -4.89183172187500 4.78412384062500 7.47979056562500 
 S -5.52878272187500 1.28370584062500 6.16154656562500 
 S -5.61110172187500 4.56833884062500 5.98528256562500 
 S -2.75116172187500 1.50898484062500 3.07761256562500 
 S -2.51604472187500 5.15036984062500 3.30531956562500 
 S -3.03742772187500 1.67820684062500 7.27373656562500 
 S -3.29201772187500 5.28004584062500 7.42504256562500 
