16

 C -3.01381604375000 1.30477624375000 5.44762396875000 
 C -2.92700504375000 5.16457624375000 5.68111996875000 
 C -4.23925004375000 0.960972243750001 4.75717696875000 
 C -4.18824104375000 4.79587924375000 5.03755196875000 
 N -1.92005704375000 1.33970624375000 4.69832796875000 
 N -1.93655404375000 5.28723424375000 4.77912296875000 
 N -4.05511904375000 0.674205243749999 3.47371296875000 
 N -4.13329104375000 4.54883324375000 3.72047596875000 
 N -4.83783504375000 1.31456924375000 7.33843696875000 
 N -4.85834604375000 5.04594724375000 7.39076896875000 
 S -5.68043304375000 1.06891824375000 5.88775596875000 
 S -5.62087104375000 4.80317824375000 5.97871796875000 
 S -2.39678504375000 0.843850243750000 3.23508696875000 
 S -2.56033804375000 4.93887524375000 3.28994196875000 
 S -3.13938204375000 1.64005824375000 7.15703896875000 
 S -3.22568804375000 5.44698924375000 7.48999596875000 
