16

 C -3.75654781875000 1.11234678125000 5.63959428750000 
 C -3.06820381875000 5.01896678125000 5.31061128750000 
 C -4.84904081875000 0.522443781250001 4.94538028750000 
 C -4.29981481875000 4.40013978125000 4.83138528750000 
 N -2.73230281875000 1.51753978125000 4.86903128750000 
 N -2.04970881875000 5.11556778125000 4.46239228750000 
 N -4.68010981875000 0.535565781250001 3.61347328750000 
 N -4.22924281875000 4.23600378125000 3.51798628750000 
 N -5.59455181875000 0.666846781250001 7.42159128750000 
 N -4.75283181875000 5.00950578125000 7.30574028750000 
 S -6.18179081875000 0.177075781250001 5.98246328750000 
 S -5.55719581875000 4.25035278125000 6.06681028750000 
 S -3.12082981875000 1.12785278125000 3.27661128750000 
 S -2.67485281875000 4.50804778125000 3.00562828750000 
 S -4.06274981875000 1.18974178125000 7.41445828750000 
 S -3.16855581875000 5.45825578125000 6.98630628750000 
