16

 C -3.02839897812500 1.80922705000000 5.48462445000000 
 C -3.61194697812500 5.31325705000000 5.50863345000000 
 C -4.13045197812500 1.14118205000000 4.80576745000000 
 C -4.65772197812500 4.46056705000000 4.93450145000000 
 N -2.02952997812500 2.09893505000000 4.67028845000000 
 N -2.60049597812500 5.51183105000000 4.66308545000000 
 N -3.89549397812500 0.908013049999997 3.53692945000000 
 N -4.51730997812500 4.23752905000000 3.62008645000000 
 N -4.67154397812500 0.912269049999997 7.26509545000000 
 N -5.24947997812500 4.64959605000000 7.44179145000000 
 S -5.38604697812500 0.564751049999997 5.79841345000000 
 S -5.93211497812500 4.00289305000000 6.08227745000000 
 S -2.38765797812500 1.49057905000000 3.15684345000000 
 S -3.06737697812500 4.95495705000000 3.19691645000000 
 S -3.29795997812500 1.85298005000000 7.16158145000000 
 S -3.80979297812500 5.49497105000000 7.23279845000000 
