16

 C -3.01103576562500 1.87679015312500 5.44772652500000 
 C -3.65983076562500 5.31191115312500 5.52881652500000 
 C -4.08343876562500 1.14626515312500 4.82134152500000 
 C -4.66217176562500 4.47791315312500 4.90161852500000 
 N -2.01155876562500 2.14440815312500 4.64712552500000 
 N -2.62610376562500 5.51294415312500 4.70798852500000 
 N -3.87312076562500 0.938628153125000 3.56512952500000 
 N -4.49216176562500 4.23097115312500 3.60480852500000 
 N -4.65564376562500 0.958665153125000 7.25245852500000 
 N -5.26579676562500 4.69339215312500 7.42366852500000 
 S -5.32188676562500 0.521633153125000 5.79585052500000 
 S -5.90087976562500 3.97351015312500 6.05262752500000 
 S -2.37006276562500 1.47543315312500 3.15700252500000 
 S -3.06163176562500 4.97418215312500 3.21611552500000 
 S -3.24924776562500 1.85292615312500 7.14898352500000 
 S -3.78278376562500 5.47501415312500 7.23918352500000 
