16

 C -3.21078377812501 1.28453548437499 5.55294504062500 
 C -3.24893877812501 4.88379048437499 5.60855804062500 
 C -4.43185277812501 0.971236484374994 4.85384504062500 
 C -4.48674677812500 4.47678248437499 4.87169204062500 
 N -2.08028577812501 1.44701548437499 4.89849704062500 
 N -2.17042877812500 5.13332748437499 4.79824004062500 
 N -4.22777377812501 0.921022484374993 3.56264304062500 
 N -4.37426277812501 4.43965948437499 3.57067504062500 
 N -4.96033577812501 1.28302248437499 7.37264604062500 
 N -5.27838577812500 4.87277348437499 7.26620204062500 
 S -5.77484277812500 0.867936484374993 6.01719004062500 
 S -5.86189677812501 4.07856848437499 5.82433404062500 
 S -2.54417377812501 1.26527248437499 3.31214104062500 
 S -2.80681877812501 4.86826248437499 3.22661704062500 
 S -3.37977977812500 1.58657848437499 7.27096004062500 
 S -3.66292777812501 5.07266048437499 7.29498004062500 
