16

 C -2.97754599062500 1.28495955000000 5.67375355625000 
 C -2.98212899062500 5.14535255000000 5.41259555625000 
 C -4.19271099062500 0.805824549999998 5.02512855625000 
 C -4.04335899062500 4.32382055000000 4.98790055625000 
 N -1.92823799062500 1.45835655000000 4.85834855625000 
 N -1.99642799062500 5.20771555000000 4.48776555625000 
 N -4.07459299062500 0.691132549999998 3.67865955625000 
 N -3.97349699062500 3.88017655000000 3.72610755625000 
 N -4.74217599062500 0.985184549999998 7.49324355625000 
 N -4.82650799062500 5.18185955000000 7.29594555625000 
 S -5.55166799062500 0.772248549999998 6.04783855625000 
 S -5.42361599062500 4.17007455000000 6.06784655625000 
 S -2.53760199062500 0.975553549999998 3.33477155625000 
 S -2.51242499062500 4.36327555000000 3.16708355625000 
 S -3.21632099062500 1.58484955000000 7.38640255625000 
 S -3.20290499062500 5.64689555000000 7.03640855625000 
