16

 C -3.13199438437500 1.29462735937500 5.37978255312500 
 C -3.10927738437500 4.89416535937500 5.50467555312500 
 C -4.31221438437500 0.561491359375001 4.80478155312500 
 C -4.41183138437500 4.64084535937500 4.95870455312500 
 N -2.22255138437500 1.64779835937500 4.48196055312500 
 N -2.16259438437500 4.99875735937500 4.57967555312500 
 N -4.18840438437500 0.275889359375001 3.49603455312500 
 N -4.48822138437500 4.52428935937500 3.62554955312500 
 N -4.89360738437500 1.18844535937500 7.30228555312500 
 N -4.79187438437500 4.80722835937500 7.51327155312500 
 S -5.55514638437500 0.322529359375001 6.06824055312500 
 S -5.69314338437500 4.58632635937500 6.11970655312500 
 S -2.70142438437500 0.915522359375001 3.02845455312500 
 S -2.92109238437500 4.71644835937500 3.08510255312500 
 S -3.37959438437500 1.85278835937500 6.99822155312500 
 S -3.16061438437500 5.29967935937500 7.23009855312500 
