16

 C -3.36915758437500 1.53265141875000 5.49282608437500 
 C -3.05772558437500 5.32292441875000 5.64034308437500 
 C -4.49115358437500 0.972766418750000 4.77693908437500 
 C -4.33789458437500 5.01680041875000 5.04144308437500 
 N -2.30614058437500 1.74984941875000 4.69698208437500 
 N -2.07120958437500 5.43150941875000 4.77536208437500 
 N -4.32654958437500 0.863731418750000 3.48266408437500 
 N -4.29439558437500 4.90136841875000 3.74870208437500 
 N -5.35797158437500 1.49177941875000 7.07340208437500 
 N -4.86763858437500 5.08077941875000 7.58945408437500 
 S -5.92454358437500 0.727173418750000 5.73517408437500 
 S -5.69594058437500 4.64314941875000 6.16456508437500 
 S -2.76167858437500 1.47890441875000 3.14386308437500 
 S -2.79015258437500 5.18216541875000 3.24784908437500 
 S -3.80137258437500 2.03965741875000 7.04414908437500 
 S -3.23286858437500 5.44270141875000 7.37620408437500 
