16

 C -3.02480091250000 1.59637042500000 5.68893293437500 
 C -3.07946291250000 5.24011442500000 5.77484693437500 
 C -4.13782791250000 0.882340424999999 5.06371593437500 
 C -4.30197691250000 4.87961742500000 5.11676993437500 
 N -1.97586991250000 1.73500542500000 4.87650093437500 
 N -2.03575891250000 5.31812842500000 4.94382993437500 
 N -3.91756991250000 0.636282424999999 3.75559393437500 
 N -4.21478791250000 4.82512242500000 3.78217393437500 
 N -4.90204891250000 1.43028042500000 7.55386193437500 
 N -4.88480491250000 5.20395042500000 7.59380893437500 
 S -5.56038791250000 0.777708424999999 6.20426993437500 
 S -5.68882891250000 4.82388842500000 6.18183693437500 
 S -2.37335991250000 1.22368142500000 3.39616393437500 
 S -2.63719791250000 5.05834842500000 3.44286693437500 
 S -3.34578091250000 1.99236042500000 7.35270093437500 
 S -3.29825891250000 5.58775542500000 7.44938793437500 
