16

 C -3.01160930937500 1.22856414687500 5.32174788750000 
 C -2.86370330937500 5.12024114687500 5.61638588750000 
 C -4.15072530937500 0.748387146874999 4.65479088750000 
 C -4.13365430937500 4.63897114687500 5.13723288750000 
 N -1.94285630937500 1.49811414687500 4.61210988750000 
 N -1.93667730937500 5.33906214687500 4.68475988750000 
 N -3.92717830937500 0.595126146874999 3.35097088750000 
 N -4.14972330937500 4.41862514687500 3.83212088750000 
 N -4.69487130937500 0.742949146874999 7.10843388750000 
 N -4.40997530937500 4.81493214687500 7.76005388750000 
 S -5.45620830937500 0.302677146874998 5.71032788750000 
 S -5.31896030937500 4.39867614687500 6.42056788750000 
 S -2.39317630937500 1.10656014687500 3.02830988750000 
 S -2.67301730937500 4.79411814687500 3.23027988750000 
 S -3.16486430937500 1.41460914687500 7.02896688750000 
 S -2.82740730937500 5.30569314687500 7.44634288750000 
