16

 C -3.14895771562500 1.03774773750000 5.43113053125000 
 C -2.84225471562500 5.14503573750000 5.42780053125000 
 C -4.48362871562500 0.681450737500001 4.91963053125000 
 C -4.01372171562500 4.72934273750000 4.69078153125000 
 N -2.21369671562500 1.17973173750000 4.50709153125000 
 N -1.73198371562500 5.32893273750000 4.71741453125000 
 N -4.51643971562500 0.469773737500001 3.60367353125000 
 N -3.78495171562500 4.81904173750000 3.36928953125000 
 N -4.82188471562500 1.27360773750000 7.48598253125000 
 N -4.75053971562500 5.00542173750000 7.15856953125000 
 S -5.69035271562500 0.683687737500001 6.21246953125000 
 S -5.39745271562500 4.67017373750000 5.70195953125000 
 S -2.98189071562500 0.791887737500001 3.07574653125000 
 S -2.17218671562500 5.16892573750000 3.09202453125000 
 S -3.17727671562500 1.41309073750000 7.14597353125000 
 S -3.07877271562500 5.20963973750000 7.20874753125000 
