16

 C -3.43483101562500 1.77692649999999 5.56015438437500 
 C -2.99341601562500 5.16089049999999 5.60565338437500 
 C -4.63605901562500 1.33309749999999 4.89667438437500 
 C -4.33828601562500 4.97484149999999 5.03119838437500 
 N -2.39472401562500 1.90365449999999 4.76755438437500 
 N -2.01317901562500 5.20631649999999 4.68459738437500 
 N -4.50265001562500 1.02632249999999 3.59506938437500 
 N -4.32883201562500 4.83416549999999 3.66499838437500 
 N -5.22439601562500 1.44479449999999 7.44705638437500 
 N -4.58136001562500 5.11739749999999 7.57655738437500 
 S -5.99871501562500 1.05231549999999 5.96858138437500 
 S -5.59186601562500 4.93853949999999 6.25110938437500 
 S -2.94894401562500 1.47871749999999 3.24190438437500 
 S -2.69064801562500 4.94840649999999 3.23540238437500 
 S -3.61295901562500 1.78531149999999 7.33738838437500 
 S -2.98769301562500 5.27465749999999 7.34120838437500 
