16

 C -2.95633566562500 1.21825332187500 5.31593355312500 
 C -2.91863566562500 5.09628432187500 5.61564555312500 
 C -4.17101066562500 0.710549321875000 4.62024555312500 
 C -4.17211266562500 4.54155732187500 5.10990455312500 
 N -2.05462166562500 1.66096532187500 4.47889455312500 
 N -2.00807466562500 5.34708332187500 4.69412655312500 
 N -4.03310166562500 0.715473321875000 3.29310855312500 
 N -4.12804566562500 4.23354632187500 3.81940955312500 
 N -4.70874566562500 0.641746321875000 7.13043455312500 
 N -4.38862766562500 5.02062932187500 7.66515755312500 
 S -5.38383466562500 0.256134321875000 5.69716755312500 
 S -5.39207066562500 4.51730232187500 6.38696555312500 
 S -2.61867566562500 1.43348932187500 2.88211955312500 
 S -2.71641266562500 4.84006432187500 3.27485155312500 
 S -3.18661566562500 1.23893532187500 7.05063955312500 
 S -2.78736166562500 5.31765332187500 7.28668455312500 
