16

 C -3.65972902500000 1.30860273124999 5.73905442187500 
 C -3.12019202500000 5.03777573124999 5.35010442187500 
 C -4.70640002500000 0.885816731249994 4.91293642187500 
 C -4.37758002500000 4.54272773124999 4.82440642187500 
 N -2.50098102500000 1.58315973124999 5.10048742187500 
 N -2.21601102500000 5.27988673125000 4.39779042187500 
 N -4.36988202500000 0.663768731249994 3.60925542187500 
 N -4.33964702500000 4.26797273124999 3.53445042187500 
 N -5.67810702500000 0.764988731249995 7.40835642187500 
 N -4.81690402500000 4.87620673124999 7.33443042187500 
 S -6.16321202500000 0.443273731249994 5.83343742187500 
 S -5.65612802500000 4.40695473124999 5.98544842187500 
 S -2.80437602500000 1.13281573124999 3.49853242187500 
 S -2.88026302500000 4.67199873124999 2.97348142187500 
 S -4.14506702500000 1.31842373124999 7.53658242187500 
 S -3.28710702500000 5.44514873124999 7.05242142187500 
