16

 C -3.28274514062500 1.21707057812500 5.52358007812500 
 C -3.06655414062500 5.11204757812500 5.42632007812500 
 C -4.57629414062500 0.903802578125000 4.94179307812500 
 C -4.30194714062500 4.74020857812500 4.77742507812500 
 N -2.29278014062500 1.36848157812500 4.66242107812500 
 N -1.98699114062500 5.21198057812500 4.66140207812500 
 N -4.58041714062500 0.673494578125000 3.63291307812500 
 N -4.18346714062500 4.75306557812500 3.45487007812500 
 N -4.81062014062500 0.792714578125000 7.49948307812500 
 N -4.80025114062500 4.60981857812500 7.27826407812500 
 S -5.84357514062500 0.853782578125000 6.16305207812500 
 S -5.67710814062500 4.61076157812500 5.85609907812500 
 S -3.03363214062500 1.05888857812500 3.19692507812500 
 S -2.56436914062500 5.01998757812500 3.08752307812500 
 S -3.26196614062500 1.47508857812500 7.29051607812500 
 S -3.25907814062500 5.14926357812500 7.15843207812500 
