16

 C -2.98793470312500 1.34830060625000 5.25838389687500 
 C -3.11319370312500 5.10225060625000 5.48714089687500 
 C -4.22385370312500 1.05001060625000 4.72476089687500 
 C -4.30447170312500 4.62436160625000 4.82708989687500 
 N -2.02537970312500 1.65564560625000 4.39738089687500 
 N -2.08513870312500 5.38695260625000 4.68468389687500 
 N -4.22858170312500 0.964702606250002 3.41421589687500 
 N -4.15855370312500 4.55687360625000 3.51478389687500 
 N -4.53295270312500 1.15329560625000 7.27087489687500 
 N -5.01691870312500 4.75920260625000 7.23796689687500 
 S -5.46872270312500 0.919569606250001 5.91748289687500 
 S -5.65424370312500 4.18846960625000 5.81989489687500 
 S -2.64347670312500 1.30207160625000 2.95403289687500 
 S -2.62505670312500 5.06931160625000 3.16408889687500 
 S -2.94435870312500 1.60649360625000 6.97337989687500 
 S -3.42634870312500 5.23144660625000 7.18627389687500 
