16

 C -2.87109306562500 1.80550092187500 5.61535850937500 
 C -3.22682806562500 5.29413792187500 5.68090150937500 
 C -4.17860206562500 1.63184592187500 4.96786250937500 
 C -4.47182406562500 4.86691792187500 5.04397250937500 
 N -1.82744106562500 1.89754792187500 4.79443850937500 
 N -2.20358806562500 5.31320492187500 4.85025650937500 
 N -4.16468706562500 1.58546092187500 3.63350850937500 
 N -4.40636106562500 4.69378092187500 3.70641350937500 
 N -4.50382506562500 1.45771592187500 7.62454950937500 
 N -4.83414406562500 5.19812092187500 7.63945250937500 
 S -5.42473206562500 1.47820592187500 6.22422950937500 
 S -5.68576606562500 4.71195892187500 6.30673550937500 
 S -2.53148206562500 1.58667592187500 3.31066750937500 
 S -2.73585306562500 4.93574592187500 3.36175150937500 
 S -2.90334706562500 1.93357992187500 7.34165650937500 
 S -3.20839606562500 5.53358492187500 7.39469450937500 
