16

 C -2.95662852500000 1.50460774375000 5.31995404687500 
 C -3.15957652500000 5.17390874375000 5.43807404687500 
 C -4.12180652500000 1.15266974375000 4.67517204687500 
 C -4.31264152500000 4.53536674375000 4.80614704687500 
 N -1.88022152500000 1.64679074375000 4.54097404687500 
 N -2.12621752500000 5.29310474375000 4.63691504687500 
 N -4.03311552500000 0.946363743750000 3.34221204687500 
 N -4.12844652500000 4.28742274375000 3.51862204687500 
 N -4.81443052500000 1.19992174375000 7.23562304687500 
 N -4.77136452500000 4.68939574375000 7.34326304687500 
 S -5.55047052500000 1.03513274375000 5.76711604687500 
 S -5.59459852500000 4.19360974375000 5.99947904687500 
 S -2.47130552500000 1.28124474375000 2.95181604687500 
 S -2.61030552500000 4.82654374375000 3.11016904687500 
 S -3.20524452500000 1.63887874375000 7.08131604687500 
 S -3.23975352500000 5.27427774375000 7.14824804687500 
