16

 C -3.23672507187500 1.31782295000000 5.51219305000000 
 C -3.21982607187500 5.13551295000000 5.31995505000000 
 C -4.54539007187500 1.13603595000000 4.84915805000000 
 C -4.47834907187500 4.68839795000000 4.76313705000000 
 N -2.12792607187500 1.22087595000000 4.75775305000000 
 N -2.20739407187500 4.98147995000000 4.49147905000000 
 N -4.41731707187500 0.961801949999998 3.52294505000000 
 N -4.42831807187500 4.28384095000000 3.49747805000000 
 N -5.07521707187500 1.29229795000000 7.33345205000000 
 N -4.99485007187500 4.96181895000000 7.21486705000000 
 S -5.92905207187500 1.17757295000000 5.92133005000000 
 S -5.77786207187500 4.48577895000000 5.82957205000000 
 S -2.74784307187500 0.951625949999998 3.28623005000000 
 S -2.80896607187500 4.44277395000000 3.10124205000000 
 S -3.40822207187500 1.39471295000000 7.25268105000000 
 S -3.47512307187500 5.51963795000000 7.01994405000000 
