16

 C -3.19135813750000 1.25951502812500 5.40871620937500 
 C -3.04787213750000 4.82336602812500 5.54673420937500 
 C -4.32707813750000 0.695202028124999 4.68081720937500 
 C -4.27927913750000 4.39428502812500 4.86603120937500 
 N -2.13056213750000 1.49801002812500 4.64890820937500 
 N -1.97814513750000 4.80507302812500 4.73739620937500 
 N -4.10765213750000 0.432741028125000 3.39336120937500 
 N -4.15905113750000 4.08444902812500 3.57952620937500 
 N -5.05652613750000 1.04671102812500 7.17871820937500 
 N -4.91278513750000 5.03336502812500 7.26483220937500 
 S -5.69566213750000 0.386709028124999 5.77331120937500 
 S -5.68430313750000 4.45774302812500 5.89714820937500 
 S -2.55530213750000 1.01658502812500 3.10887620937500 
 S -2.54281813750000 4.39689802812500 3.23856420937500 
 S -3.50276513750000 1.70246302812500 7.07231620937500 
 S -3.30223113750000 5.45699002812500 7.12661820937500 
