16

 C -3.13028722500000 1.47771715000000 5.60413277812500 
 C -3.33370322500000 5.05570315000000 5.27169277812500 
 C -4.26920822500000 0.961475150000004 4.89626277812500 
 C -4.44586122500000 4.37419615000000 4.66562477812500 
 N -2.03756522500000 1.63922715000000 4.85841377812500 
 N -2.25676322500000 5.24572615000000 4.54195277812500 
 N -4.02324022500000 0.810857150000004 3.61234077812500 
 N -4.15609722500000 3.95931215000000 3.44982677812500 
 N -5.05577122500000 1.22411815000000 7.29380277812500 
 N -5.30069722500000 5.35270515000000 6.90245177812500 
 S -5.71124622500000 1.00375015000000 5.79920377812500 
 S -5.94572722500000 4.48548515000000 5.56367577812500 
 S -2.35953022500000 1.18258915000000 3.27279277812500 
 S -2.55556322500000 4.44905715000000 3.11836177812500 
 S -3.51291822500000 1.66788515000000 7.28715077812500 
 S -3.60176922500000 5.55981015000000 6.86911677812500 
