16

 C -2.93716598125000 1.50689659062500 5.28541080312500 
 C -3.33142598125000 5.21695759062500 5.46509980312500 
 C -4.23816898125000 1.05179559062500 4.76324580312500 
 C -4.41337598125000 4.64894659062500 4.71933880312500 
 N -1.97549198125000 1.57688959062500 4.37190980312500 
 N -2.24828898125000 5.49131059062500 4.73167080312500 
 N -4.21384298125000 0.888374590624999 3.43815780312500 
 N -4.17276998125000 4.61951159062500 3.39743680312500 
 N -4.56978798125000 1.14537259062500 7.38400180312500 
 N -5.06298998125000 4.71781459062500 7.22405780312500 
 S -5.45551098125000 0.795971590624999 6.05284980312500 
 S -5.75426898125000 4.31692359062500 5.79288580312500 
 S -2.72172898125000 1.28199959062500 2.87782180312500 
 S -2.61704298125000 5.15626159062500 3.16818780312500 
 S -2.98831498125000 1.58809659062500 7.09749880312500 
 S -3.47678098125000 5.22055159062500 7.20665380312500 
