16

 C -3.69366783750000 1.17092061250000 5.62663453437500 
 C -2.99056583750000 5.01163761250000 5.36311753437500 
 C -4.82933983750000 0.559629612499998 4.99041153437500 
 C -4.23942583750000 4.48357261250000 4.84044553437500 
 N -2.67716483750000 1.51817161250000 4.82120553437500 
 N -2.03607083750000 5.11848961250000 4.44800153437500 
 N -4.65578583750000 0.389618612499998 3.68382353437500 
 N -4.17368583750000 4.06766561250000 3.57610753437500 
 N -5.47092783750000 0.578740612499998 7.38862853437500 
 N -4.73052683750000 4.91075561250000 7.30462453437500 
 S -6.19206883750000 0.162854612499998 5.91541053437500 
 S -5.49155083750000 4.30539961250000 5.94585753437500 
 S -3.17756583750000 1.04296261250000 3.32044853437500 
 S -2.64543283750000 4.54085061250000 3.02141053437500 
 S -3.88170483750000 1.17083861250000 7.35234353437500 
 S -3.14475983750000 5.43494561250000 7.10741653437500 
