16

 C -2.99346273750000 1.32787144375000 5.45778783437500 
 C -3.04142773750000 5.19266244375000 5.45906983437500 
 C -4.13986673750000 0.760510443750004 4.78261383437500 
 C -4.31665073750000 4.87287444375000 4.83630783437500 
 N -1.99904373750000 1.69188544375000 4.58842983437500 
 N -2.00741573750000 5.25602144375000 4.63367583437500 
 N -4.00447373750000 0.510920443750003 3.46433283437500 
 N -4.20489173750000 4.67977344375000 3.54183583437500 
 N -4.97963873750000 0.959576443750002 7.15531683437500 
 N -4.63338273750000 5.06192044375000 7.47798783437500 
 S -5.59520973750000 0.507833443750003 5.63980883437500 
 S -5.62458473750000 5.00659044375000 6.14386483437500 
 S -2.53938673750000 1.19475644375000 3.08336583437500 
 S -2.55533373750000 4.98499544375000 3.13822283437500 
 S -3.39354673750000 1.36937944375000 7.22382783437500 
 S -2.92906373750000 5.38049044375000 7.18541883437500 
