16

 C -2.85836645000000 1.88195575625000 5.40582878750000 
 C -3.10298545000000 5.22373975625000 5.48416278750000 
 C -4.10012645000000 1.49004375625000 4.78492978750000 
 C -4.33494245000000 4.83338975625000 4.75961178750000 
 N -1.81632145000000 1.80198475625000 4.59845578750000 
 N -1.99870745000000 5.24067675625000 4.77741778750000 
 N -4.03184145000000 1.26512175625000 3.47250878750000 
 N -4.12488845000000 4.60446375625000 3.44348678750000 
 N -4.61319145000000 1.72560275625001 7.26984178750000 
 N -4.91602545000000 4.90170275625001 7.30559478750000 
 S -5.41968045000000 1.39124675625000 5.87949078750000 
 S -5.72142945000000 4.62183475625000 5.84087378750000 
 S -2.48224845000000 1.48143375625000 3.05535078750000 
 S -2.48914945000000 4.85702075625001 3.20609578750000 
 S -3.02604845000000 2.17153175625000 7.11900178750000 
 S -3.31240045000000 5.28548975625000 7.20273878750000 
