16

 C -3.15705475625000 1.19576805625000 5.20740859062500 
 C -3.24330875625000 4.99889005625000 5.47033859062500 
 C -4.46684075625000 0.855420056249998 4.66458359062500 
 C -4.55153575625000 4.62540105625000 4.90931359062500 
 N -2.21527475625000 1.14387605625000 4.26540059062500 
 N -2.28567375625000 5.20748705625000 4.60655159062500 
 N -4.51648475625000 0.688686056249998 3.33062959062500 
 N -4.53228875625000 4.52492205625000 3.56096159062500 
 N -4.87554875625000 1.36861305625000 7.10103059062500 
 N -4.82836275625000 4.91282205625000 7.56493659062500 
 S -5.79252775625000 0.818645056249998 5.84905359062500 
 S -5.78731075625000 4.46730205625000 6.16807459062500 
 S -2.96509075625000 0.804582056249997 2.84646659062500 
 S -2.97798175625000 4.92907605625000 3.15350159062500 
 S -3.22830175625000 1.62696605625000 6.90900459062500 
 S -3.23815975625000 5.25181205625000 7.20326159062500 
