16

 C -3.25078311562500 1.38767390625000 5.53878134687500 
 C -3.17918011562500 5.04651890625000 5.67877634687500 
 C -4.45125711562500 0.853127906250002 5.00051534687500 
 C -4.31431811562500 4.37757390625000 5.11233134687500 
 N -2.25902511562500 1.39940490625000 4.68094034687500 
 N -2.13090511562500 5.09250190625000 4.83537534687500 
 N -4.40667011562500 0.457639906250002 3.72718334687500 
 N -4.25382711562500 4.13625890625000 3.81286434687500 
 N -4.89391111562500 1.25437490625000 7.57900634687500 
 N -4.92629211562500 4.80447990625000 7.51846134687500 
 S -5.74185111562500 0.876600906250002 6.17021934687500 
 S -5.64940211562500 4.27722590625000 6.15114734687500 
 S -2.87213111562500 0.808357906250001 3.20230634687500 
 S -2.75554511562500 4.62694690625000 3.35352434687500 
 S -3.24675711562500 1.76425190625000 7.30641034687500 
 S -3.34237211562500 5.20804390625000 7.38387034687500 
