16

 C -3.20111325312500 1.40991988125000 5.52245411562500 
 C -3.14228125312500 5.39596388125000 5.67209511562500 
 C -4.37321225312500 0.985646881250001 4.77941611562500 
 C -4.34513125312500 4.96704688125000 4.97965611562500 
 N -2.12906225312500 1.79503388125000 4.84591911562500 
 N -2.08271425312500 5.37863588125000 4.92356511562500 
 N -4.18790725312500 1.13099188125000 3.47697211562500 
 N -4.21087325312500 4.86147188125000 3.65731911562500 
 N -5.05429025312500 0.727757881250001 7.23747311562500 
 N -4.80270825312500 5.07836388125000 7.48117611562500 
 S -5.80163925312500 0.559799881250001 5.76013711562500 
 S -5.65288025312500 5.04702388125000 6.11263011562500 
 S -2.60649325312500 1.57612788125000 3.19328611562500 
 S -2.57404325312500 5.13237988125000 3.37716411562500 
 S -3.50826425312500 1.49333088125000 7.22896111562500 
 S -3.26660425312500 5.57721988125000 7.36517211562500 
