16

 C -3.31173998437500 1.34003977812500 5.52230926875000 
 C -3.18207598437500 5.04351677812500 5.47866326875000 
 C -4.54726498437500 0.968281778125001 4.96910326875000 
 C -4.41123398437500 4.77416177812500 4.79383126875000 
 N -2.31157698437500 1.45864277812500 4.68889026875000 
 N -2.20204898437500 5.24129377812500 4.63068626875000 
 N -4.50580398437500 0.883644778125002 3.66200126875000 
 N -4.32354298437500 4.54219277812500 3.47677626875000 
 N -4.92193198437500 0.960582778125002 7.51092526875000 
 N -4.91000798437500 4.67251877812500 7.31821026875000 
 S -5.83919698437500 0.819126778125002 6.13236326875000 
 S -5.76877998437500 4.50861477812500 5.89564926875000 
 S -2.90625698437500 1.11334477812500 3.19809726875000 
 S -2.77606598437500 4.97568777812500 3.11265626875000 
 S -3.36344998437500 1.45681877812500 7.21052826875000 
 S -3.25902798437500 5.16122277812500 7.17710426875000 
