16

 C -3.37103211562501 1.25945401562500 5.38522127500000 
 C -3.17634311562501 5.02076201562500 5.28705427500000 
 C -4.55120811562501 0.688621015624999 4.70489127500000 
 C -4.42514411562501 4.63849101562500 4.70624127500000 
 N -2.29683411562501 1.34430501562500 4.62983627500000 
 N -2.07136811562501 5.03859901562500 4.53009127500000 
 N -4.32600611562501 0.377775015624998 3.42459727500000 
 N -4.27106911562501 4.28922301562500 3.39792927500000 
 N -5.21636611562501 1.06898801562500 7.15136927500000 
 N -4.96766111562501 4.93233101562500 7.20810827500000 
 S -5.91658911562501 0.510598015624998 5.76726227500000 
 S -5.78768411562501 4.80274901562500 5.78325527500000 
 S -2.82288911562501 0.900009015624998 3.07860827500000 
 S -2.67748411562501 4.57721101562500 3.04984327500000 
 S -3.68127511562501 1.46224801562500 7.09229227500000 
 S -3.31840811562501 5.52769301562500 6.93147727500000 
