16

 C -2.92995701562500 1.46739108750000 5.32583072812500 
 C -3.07914801562500 5.08997308750000 5.51620672812500 
 C -4.19112801562500 1.02034608750000 4.67857072812500 
 C -4.21653101562500 4.54052308750000 4.84041972812500 
 N -1.94201901562500 1.63162708750000 4.45885472812500 
 N -2.06934201562500 5.35752508750000 4.67911672812500 
 N -4.18199901562500 0.953873087500000 3.36721072812500 
 N -4.18638201562500 4.53113908750000 3.50905372812500 
 N -4.60865901562500 1.17739708750000 7.20650672812500 
 N -4.94546501562500 4.74718708750000 7.29029372812500 
 S -5.50168201562500 0.987362087499999 5.81951872812500 
 S -5.55919401562500 4.17196508750000 5.85048172812500 
 S -2.63093401562500 1.31610008750000 2.93788672812500 
 S -2.64843401562500 4.95239208750000 3.10210372812500 
 S -3.00252401562500 1.62006508750000 7.04146272812500 
 S -3.37965601562500 5.24832908750000 7.22981972812500 
