16

 C -3.41360319062500 1.24756732812500 5.32528482187500 
 C -3.15503019062500 5.05484332812500 5.30266582187500 
 C -4.60313519062500 0.703920328125003 4.68067082187500 
 C -4.39327619062500 4.64849932812500 4.73887182187500 
 N -2.28804519062500 1.35728732812500 4.58138982187500 
 N -2.07561519062500 5.05054132812500 4.46382182187500 
 N -4.32307919062500 0.355233328125002 3.41175882187500 
 N -4.32409619062500 4.29372632812500 3.44114682187500 
 N -5.16545019062500 1.01901232812500 7.16857582187500 
 N -4.90380219062500 4.88097532812500 7.21977682187500 
 S -5.94333819062500 0.572044328125002 5.78635982187500 
 S -5.76049419062500 4.79224632812500 5.78886682187500 
 S -2.80515319062500 0.890721328125002 3.08952082187500 
 S -2.74368519062500 4.58238832812500 3.05030182187500 
 S -3.62308119062500 1.45241432812500 7.05353282187500 
 S -3.35220419062500 5.49918832812500 6.96078982187500 
