16

 C -2.98985873437500 1.29343901875000 5.60535252812500 
 C -3.02877873437500 5.12606301875000 5.64130552812500 
 C -4.18556673437500 0.695100018750003 4.99075252812500 
 C -4.15302473437500 4.40436601875000 5.05266052812500 
 N -1.94427073437500 1.35757701875000 4.77288152812500 
 N -2.08327273437500 5.37144301875000 4.74937052812500 
 N -3.93481773437500 0.394921018750003 3.71382552812500 
 N -3.97575073437500 4.05142701875000 3.79579152812500 
 N -4.91255973437500 1.33729801875000 7.35470052812500 
 N -4.78070873437500 4.82021401875000 7.46109452812500 
 S -5.58603973437500 0.661810018750003 5.99346852812500 
 S -5.55019873437500 4.40958401875000 6.04987052812500 
 S -2.35612273437500 0.740236018750004 3.28312752812500 
 S -2.53970273437500 4.62571401875000 3.31937652812500 
 S -3.24585473437500 1.60761801875000 7.26847552812500 
 S -3.18326073437500 5.36254401875000 7.35484552812500 
