16

 C -2.83204128125000 1.30459146875000 5.71096168125000 
 C -2.93609028125000 4.89097746875000 5.40094268125000 
 C -4.15559828125000 1.20352146875000 5.21483168125000 
 C -4.15892428125000 4.54413046875000 4.66708568125000 
 N -1.92127328125000 0.977304468750001 4.75583068125000 
 N -1.84290628125000 4.89222446875000 4.64116768125000 
 N -4.36486928125000 0.718907468750000 4.00125168125000 
 N -4.01795228125000 4.30394146875000 3.38110068125000 
 N -4.57035328125000 1.64804046875000 7.67756068125000 
 N -4.75741228125000 4.88905446875000 7.24038968125000 
 S -5.49463828125000 1.42199646875000 6.29129668125000 
 S -5.57104628125000 4.52290646875000 5.89701468125000 
 S -2.82774628125000 0.580517468749999 3.38383768125000 
 S -2.33717528125000 4.47749446875000 3.14064768125000 
 S -2.88115028125000 1.53152146875000 7.42813968125000 
 S -3.03341428125000 4.84645946875000 7.09751868125000 
