16

 C -3.03271351250000 1.45188469375000 5.56007429062500 
 C -3.41528951250000 5.16868769375000 5.16188529062500 
 C -4.21846351250000 0.950567693750000 4.84677229062500 
 C -4.41017351250000 4.34790069375000 4.56167529062500 
 N -1.98673251250000 1.49699069375000 4.74267229062500 
 N -2.30974551250000 5.30635869375000 4.45356829062500 
 N -4.03337151250000 0.780417693750000 3.56422329062500 
 N -4.14864651250000 3.97212969375000 3.30288829062500 
 N -4.91927351250000 1.07206869375000 7.33407229062500 
 N -5.16761951250000 5.03043669375000 6.98130129062500 
 S -5.59887151250000 0.757820693750000 5.82904329062500 
 S -5.72442051250000 4.10631969375000 5.67688129062500 
 S -2.39903751250000 1.14641069375000 3.16765429062500 
 S -2.55171451250000 4.51808569375000 3.03574229062500 
 S -3.39345051250000 1.72476169375000 7.23290429062500 
 S -3.76677751250000 5.83909569375000 6.65572929062500 
