16

 C -3.65943109062500 1.13908502500000 5.65590660625000 
 C -2.98135509062500 4.99908302500000 5.36341860625000 
 C -4.82581009062500 0.566402025000003 4.97219760625000 
 C -4.22654709062500 4.49380002500000 4.83367160625000 
 N -2.67976309062500 1.55312302500000 4.80435960625000 
 N -2.04666609062500 5.12250802500000 4.43341160625000 
 N -4.65385509062500 0.418109025000002 3.64707460625000 
 N -4.17690709062500 4.09288702500000 3.57445360625000 
 N -5.50987609062500 0.591207025000003 7.39808860625000 
 N -4.72792209062500 4.92874202500000 7.29717560625000 
 S -6.20155709062500 0.156316025000002 5.93573760625000 
 S -5.50848309062500 4.29063002500000 5.96712360625000 
 S -3.18495009062500 1.04553402500000 3.31122360625000 
 S -2.65474409062500 4.52680302500000 3.00982260625000 
 S -3.91463109062500 1.17214902500000 7.36960660625000 
 S -3.15713109062500 5.43817602500000 7.09686360625000 
