16

 C -3.26065047187500 1.44841446250000 5.39243464687500 
 C -3.33924847187500 5.28838746250000 5.42411864687500 
 C -4.41048747187500 0.811023462499999 4.92202064687500 
 C -4.47816747187500 4.72147446250000 4.76788764687500 
 N -2.34801347187500 1.68238746250000 4.46840164687500 
 N -2.37423747187500 5.60426446250000 4.57064364687500 
 N -4.38834247187500 0.444249462499998 3.62573664687500 
 N -4.45273247187500 4.67980046250000 3.45402064687500 
 N -4.74327047187500 1.14912546250000 7.46874964687500 
 N -5.04793947187500 4.70431646250000 7.21109664687500 
 S -5.61534447187500 0.503408462499999 6.19662364687500 
 S -5.67708047187500 4.13743946250000 5.79801664687500 
 S -2.86429247187500 1.03079546250000 3.07288864687500 
 S -2.90406747187500 5.18818646250000 3.03731564687500 
 S -3.36193047187500 1.97242346250000 7.01706764687500 
 S -3.64197447187500 5.52892846250000 7.12069464687500 
