16

 C -3.25135429375000 1.19330329687500 5.55408505937500 
 C -2.99184529375000 5.02693129687500 5.47810305937500 
 C -4.56093429375000 0.851050296875001 4.99683705937500 
 C -4.20682029375000 4.88222029687500 4.72315505937500 
 N -2.33319529375000 1.32246329687500 4.59081505937500 
 N -1.96064029375000 5.25738629687500 4.66745705937500 
 N -4.57586329375000 0.608815296875001 3.67765605937500 
 N -4.08098629375000 4.81360429687500 3.39390005937500 
 N -4.83016229375000 0.826326296875001 7.54068805937500 
 N -4.83246329375000 4.65888329687500 7.25748805937500 
 S -5.79283829375000 0.832850296875001 6.18579905937500 
 S -5.57486829375000 4.63278829687500 5.82674605937500 
 S -3.05927229375000 1.01654029687500 3.13069105937500 
 S -2.46886329375000 5.03148329687500 3.08568305937500 
 S -3.24656529375000 1.43790429687500 7.30751405937500 
 S -3.24116629375000 5.13675429687500 7.17383605937500 
