16

 C -2.93738230937500 2.06781260000001 5.41878695312500 
 C -3.01573530937500 5.16782760000000 5.43452595312500 
 C -4.10116530937500 1.50929460000000 4.82747295312500 
 C -4.25611530937500 4.87335260000000 4.70434995312500 
 N -1.94907930937500 2.31538460000001 4.57456995312500 
 N -1.92816630937500 5.23293860000000 4.68389295312500 
 N -3.91781330937500 1.26636460000000 3.54755095312500 
 N -4.10768630937500 4.85933360000000 3.41434795312500 
 N -4.61790730937500 1.85509660000000 7.32991095312500 
 N -4.98558730937500 5.00695960000000 7.15678295312500 
 S -5.40994330937500 1.45978860000000 5.97083895312500 
 S -5.61069730937500 4.54861160000000 5.71816195312500 
 S -2.38114730937500 1.77700060000000 3.04985195312500 
 S -2.54155030937500 5.16248660000000 3.05178295312500 
 S -3.05096630937500 2.26173160000000 7.11981995312500 
 S -3.34338530937500 5.31741560000000 7.13139495312500 
