16

 C -3.21184714062500 1.04582043437500 5.56507242812500 
 C -3.20894614062500 5.11702843437500 5.68421842812500 
 C -4.48191914062500 0.866489434375003 4.89678042812500 
 C -4.37445914062500 4.49813943437500 5.08283042812500 
 N -2.18616414062500 1.21585543437500 4.72637942812500 
 N -2.23694714062500 5.51519043437500 4.86768942812500 
 N -4.37768714062500 0.776252434375003 3.58234442812500 
 N -4.19193714062500 4.33149943437500 3.79093442812500 
 N -5.00740114062500 0.503797434375003 7.40556542812500 
 N -4.87033614062500 4.41116143437500 7.54533042812500 
 S -5.80438614062500 0.544219434375002 5.91389242812500 
 S -5.70259714062500 4.15085543437500 6.15391542812500 
 S -2.76301014062500 0.922550434375002 3.17657242812500 
 S -2.74983114062500 5.01637143437500 3.35034642812500 
 S -3.43622114062500 0.983776434375002 7.29366742812500 
 S -3.49795214062500 5.32253043437500 7.40477642812500 
