16

 C -3.29580509062500 1.23477063750000 6.00086044687500 
 C -3.03407209062500 4.78725963750000 5.27221544687500 
 C -4.48708709062500 0.752237637500000 5.24174144687500 
 C -4.30295009062500 4.68073063750000 4.59621344687500 
 N -2.20040909062500 1.49437163750000 5.23577244687500 
 N -1.98148809062500 4.93557963750000 4.44650044687500 
 N -4.28276809062500 0.728824637499999 3.91360144687500 
 N -4.16330309062500 4.44311063750000 3.29094044687500 
 N -5.21389309062500 0.700295637500000 7.72746144687500 
 N -4.77958609062500 4.71194963750000 7.13513144687500 
 S -5.86820609062500 0.383118637500000 6.23607844687500 
 S -5.58199709062500 4.54543663750000 5.66494544687500 
 S -2.72402609062500 1.23495763750000 3.67993944687500 
 S -2.57469609062500 4.75618163750000 2.88135744687500 
 S -3.64037409062500 1.25437263750000 7.65742444687500 
 S -3.14733509062500 4.97236363750000 7.00853644687500 
