16

 C -3.17157355937500 1.46855373750000 5.32299609375000 
 C -3.14612955937500 5.31360673750000 5.52845209375000 
 C -4.40232355937500 0.860608737500003 4.67333609375000 
 C -4.34758355937500 4.74306473750000 4.98995809375000 
 N -2.23546055937500 1.85583773750000 4.46495309375000 
 N -2.19630655937500 5.60535073750000 4.60906009375000 
 N -4.39807655937500 0.894880737500004 3.33643809375000 
 N -4.34817955937500 4.52464373750000 3.68465009375000 
 N -4.79941355937500 0.721976737500004 7.20830009375000 
 N -4.85654655937500 4.94094373750000 7.53811209375000 
 S -5.64202255937500 0.412211737500003 5.79038209375000 
 S -5.62913655937500 4.53764473750000 6.11465709375000 
 S -2.87832555937500 1.51432873750000 2.98312309375000 
 S -2.81596855937500 5.09638173750000 3.13556609375000 
 S -3.30895755937500 1.46830973750000 7.02189109375000 
 S -3.31480755937500 5.48238673750000 7.27393209375000 
