16

 C -2.90243235937500 1.70206382187500 5.45239425625000 
 C -3.22252735937500 5.08734682187500 5.67052625625000 
 C -4.14420135937500 1.27250382187500 4.90660425625000 
 C -4.43977135937500 4.66699582187500 5.01625925625000 
 N -1.95921735937500 1.92482082187500 4.56564825625000 
 N -2.20956135937500 5.33203982187500 4.86078825625000 
 N -4.13991135937500 1.17917482187500 3.58033925625000 
 N -4.31817235937500 4.49016582187500 3.69601425625000 
 N -4.48757435937500 1.80115882187500 7.43089325625000 
 N -4.95518535937500 4.94239982187500 7.55148525625000 
 S -5.40158435937500 1.39276382187500 6.10584625625000 
 S -5.72892635937500 4.60369682187500 6.13989925625000 
 S -2.59179335937500 1.50152182187500 3.07606725625000 
 S -2.76852235937500 4.97117682187500 3.28636525625000 
 S -2.86910235937500 1.99193282187500 7.20135425625000 
 S -3.32320035937500 5.25419382187500 7.39005425625000 
