16

 C -3.03316944687500 1.24579395625000 5.71087405625000 
 C -3.12726644687500 4.94678195625000 5.48271305625000 
 C -4.10706244687500 0.555633956250001 5.08759805625000 
 C -4.36515544687500 4.54084995625000 4.84923505625000 
 N -2.03795944687500 1.46886295625000 4.85780505625000 
 N -2.14317944687500 5.09245695625000 4.62286105625000 
 N -3.95595144687500 0.251931956250000 3.80046005625000 
 N -4.22370444687500 4.19058095625000 3.58735805625000 
 N -4.82585144687500 0.894210956250001 7.48788805625000 
 N -4.92477744687500 5.04458495625000 7.26751205625000 
 S -5.47198544687500 0.312597956250000 6.08907405625000 
 S -5.68064944687500 4.28516695625000 5.97582105625000 
 S -2.46520844687500 0.838377956250000 3.38420405625000 
 S -2.68762044687500 4.55444595625000 3.14015705625000 
 S -3.28850444687500 1.55738495625000 7.44624905625000 
 S -3.24857644687500 5.15673795625000 7.19733505625000 
