16

 C -3.25424065937500 1.56642931562500 5.85548431875000 
 C -3.01184965937500 5.19844331562500 5.78314131875000 
 C -4.44705065937500 1.15208131562500 5.22672831875000 
 C -4.25149265937500 4.71273531562500 5.15062531875000 
 N -2.19203965937500 1.62787731562500 5.04874431875000 
 N -2.01509665937500 5.39902731562500 4.96318231875000 
 N -4.27856665937500 0.845790315625001 3.90689931875000 
 N -4.15438565937500 4.53072431562500 3.82974131875000 
 N -4.99997865937500 1.31694031562500 7.71728831875000 
 N -4.90512565937500 4.97811631562500 7.60883131875000 
 S -5.80195765937500 0.856606315625001 6.33644631875000 
 S -5.58027365937500 4.29134531562500 6.22267731875000 
 S -2.75813365937500 1.24634031562500 3.54442931875000 
 S -2.58694565937500 4.91192231562500 3.43053731875000 
 S -3.40417165937500 1.81277931562500 7.52308731875000 
 S -3.29094965937500 5.39005131562500 7.57065231875000 
