16

 C -3.49647277187500 1.45826466875000 5.50538043437500 
 C -2.94112077187500 5.21773466875000 5.50194943437500 
 C -4.48568377187500 0.590591668750002 4.91613443437500 
 C -4.15962977187500 4.88941766875000 4.83871343437500 
 N -2.47041177187500 1.75277966875000 4.73517443437500 
 N -1.90699677187500 5.25977066875000 4.63555843437500 
 N -4.18305577187500 0.274315668750002 3.68225643437500 
 N -4.05233277187500 4.63410966875000 3.52109343437500 
 N -5.13766677187500 1.09281166875000 7.37343243437500 
 N -4.81093377187500 4.98869666875000 7.29325643437500 
 S -5.80568477187500 0.272988668750002 6.05799543437500 
 S -5.55713877187500 4.83860466875000 5.76640843437500 
 S -2.70998377187500 1.01561466875000 3.27661143437500 
 S -2.49308377187500 4.88091766875000 3.09173643437500 
 S -3.69965277187500 1.84118566875000 7.19420543437500 
 S -3.14320377187500 5.44801266875000 7.24613143437500 
