16

 C -2.85958974687500 1.69221424062500 5.51473039062500 
 C -3.21093974687500 5.07311124062500 5.69372939062500 
 C -4.12115674687500 1.31796924062500 4.94628239062500 
 C -4.41751374687500 4.71797124062500 5.01401939062500 
 N -1.98371974687500 1.97723224062500 4.52995839062500 
 N -2.23304274687500 5.36920424062500 4.83013539062500 
 N -4.11177574687500 1.20186324062500 3.61225939062500 
 N -4.31586474687500 4.47687124062500 3.70688839062500 
 N -4.49248774687500 1.72897724062500 7.48066439062500 
 N -4.94318674687500 4.97919524062500 7.52073239062500 
 S -5.37264974687500 1.44374624062500 6.13042239062500 
 S -5.70958174687500 4.63354824062500 6.14480439062500 
 S -2.57536474687500 1.50719624062500 3.06160339062500 
 S -2.78671774687500 4.94405124062500 3.28803239062500 
 S -2.90802074687500 1.98108824062500 7.21803739062500 
 S -3.31997774687500 5.26890324062500 7.44551839062500 
