16

 C -3.12882639687500 1.47894624062501 5.90636921250000 
 C -3.10526939687500 5.01838024062501 5.72946121250000 
 C -4.35713439687500 0.983885240625004 5.35957821250000 
 C -4.25912939687500 4.51353824062501 5.05413921250000 
 N -2.17016639687500 1.57590024062500 4.96312621250000 
 N -2.09562839687500 5.27062724062500 4.98815321250000 
 N -4.42171439687500 0.732990240625004 4.02860921250000 
 N -4.06884539687500 4.42049724062500 3.73518921250000 
 N -4.98001139687500 1.31712024062500 7.78317121250000 
 N -4.88152339687500 4.92331624062501 7.52994421250000 
 S -5.73440839687500 1.00696424062501 6.32054821250000 
 S -5.59434739687500 4.39160924062500 6.17869521250000 
 S -2.91405139687500 1.15223224062500 3.46056921250000 
 S -2.52692039687500 5.02689924062501 3.44470721250000 
 S -3.37916239687500 1.78413824062501 7.65075821250000 
 S -3.21939339687500 5.25655824062501 7.38326521250000 
