16

 C -3.16190317500000 0.810760871875000 5.68039479375000 
 C -3.01152917500000 5.07749987187500 5.44258879375000 
 C -4.39269417500000 0.550743871875000 4.88041079375000 
 C -4.19320917500000 4.66895587187500 4.73307679375000 
 N -2.11198817500000 1.09609287187500 4.92037679375000 
 N -1.97046517500000 5.27037487187500 4.61392679375000 
 N -4.20694017500000 0.587684871875000 3.58017079375000 
 N -4.01054217500000 4.33481187187500 3.44329779375000 
 N -5.10926717500000 0.701476871875000 7.31533879375000 
 N -4.79475117500000 4.79938887187500 7.21576079375000 
 S -5.83933717500000 0.330553871875000 5.81616279375000 
 S -5.46828917500000 4.23193787187500 5.81142779375000 
 S -2.61612517500000 0.923184871875000 3.38843379375000 
 S -2.41685317500000 4.72192487187500 3.16847079375000 
 S -3.45434717500000 0.985117871875000 7.40555979375000 
 S -3.20329217500000 5.18677887187500 7.17761279375000 
