16

 C -3.04239750937500 1.16084427187500 5.48118546250000 
 C -3.11042750937500 5.11330827187500 5.53668146250000 
 C -4.22798750937500 0.612178271875001 4.77602746250000 
 C -4.35336050937500 4.84343327187500 4.85094346250000 
 N -1.95592550937500 1.19332527187500 4.70477146250000 
 N -2.03297750937500 5.08563027187500 4.77930446250000 
 N -4.05760450937500 0.162591271875001 3.55023146250000 
 N -4.22056350937500 4.69286627187500 3.51679246250000 
 N -5.07868150937500 1.27055427187500 7.13112346250000 
 N -4.88144850937500 5.27272327187500 7.42294846250000 
 S -5.68250450937500 0.517954271875000 5.71208746250000 
 S -5.69938250937500 4.69547427187500 6.04015946250000 
 S -2.45034450937500 0.587593271875001 3.20469146250000 
 S -2.51150750937500 4.80661027187500 3.25664846250000 
 S -3.40828950937500 1.43537727187500 7.17025646250000 
 S -3.21903250937500 5.53933327187500 7.22895346250000 
