16

 C -3.21945809062500 1.09930971875000 5.48767958437500 
 C -2.84410009062500 5.17589671875000 5.47996058437500 
 C -4.52113109062500 0.759488718750001 5.01048058437500 
 C -4.06021709062500 4.93046271875000 4.74925158437500 
 N -2.29675509062500 1.32589571875000 4.55106158437500 
 N -1.74801009062500 5.25185071875000 4.74125858437500 
 N -4.57705009062500 0.512086718750002 3.69677658437500 
 N -3.85924809062500 4.85754471875000 3.46339958437500 
 N -4.82552109062500 1.30447171875000 7.48935958437500 
 N -4.79486109062500 5.02326871875000 7.10827158437500 
 S -5.73655309062500 0.637956718750001 6.25360958437500 
 S -5.48273809062500 4.61868271875000 5.67388458437500 
 S -3.06779409062500 0.889591718750002 3.13844158437500 
 S -2.27623009062500 5.12841471875000 3.13565058437500 
 S -3.15783209062500 1.26573371875000 7.22290158437500 
 S -3.09723509062500 5.07713671875000 7.19995058437500 
