16

 C -3.08581037812500 1.27799251875000 5.32551534375000 
 C -2.84463437812500 5.02812451875000 5.70078134375000 
 C -4.23548037812500 0.766702518750000 4.60917434375000 
 C -4.06676237812500 4.45151151875000 5.15636234375000 
 N -2.06777937812500 1.60104851875000 4.54104534375000 
 N -1.88124737812500 5.27698551875000 4.82524334375000 
 N -4.21131337812500 0.843656518750000 3.27671634375000 
 N -4.01959637812500 4.22307851875000 3.86433334375000 
 N -4.92067637812500 0.699549518750000 7.13282234375000 
 N -4.52759537812500 4.65756951875000 7.61647934375000 
 S -5.57752837812500 0.305428518750000 5.65437034375000 
 S -5.40512237812500 4.47208351875000 6.26923334375000 
 S -2.64847037812500 1.33531851875000 2.91244634375000 
 S -2.54643237812500 4.84105951875000 3.30902334375000 
 S -3.33775137812500 1.32334151875000 7.08316534375000 
 S -2.97727337812500 5.22222751875000 7.40779734375000 
