16

 C -3.20852328437500 0.980890271875001 5.42146504375000 
 C -3.18613028437500 4.69773727187500 5.59735104375000 
 C -4.54872828437500 0.733078271875001 4.80924004375000 
 C -4.45367728437500 4.53461627187500 4.97760404375000 
 N -2.18255828437500 1.11300527187500 4.55889304375000 
 N -2.16397028437500 4.85424127187500 4.69442604375000 
 N -4.54565728437500 0.764465271875001 3.47629104375000 
 N -4.50683228437500 4.54287027187500 3.63838804375000 
 N -4.90995128437500 0.482368271875001 7.31119904375000 
 N -4.93172828437500 4.69803827187500 7.50139904375000 
 S -5.76340828437500 0.247852271875001 5.91537304375000 
 S -5.76621828437500 4.56982827187500 6.10521204375000 
 S -2.92527328437500 1.06888427187500 3.08108104375000 
 S -2.85651828437500 4.75066027187500 3.21883704375000 
 S -3.28820328437500 0.845004271875001 7.16646904375000 
 S -3.30456428437500 4.69565127187500 7.35151204375000 
