16

 C -3.30661465000000 1.47665651562500 5.62592967500000 
 C -3.52730265000000 5.28166751562500 5.58955067500000 
 C -4.49513265000000 0.977959515624996 5.02516067500000 
 C -4.65454865000000 4.65974251562500 4.86189767500000 
 N -2.31389465000000 1.77144251562500 4.77029367500000 
 N -2.57290865000000 5.62468051562500 4.77644767500000 
 N -4.42738165000000 0.797612515624996 3.70933667500000 
 N -4.44803665000000 4.39184251562500 3.56894267500000 
 N -4.93728265000000 1.06461951562500 7.54464967500000 
 N -5.26226165000000 4.82952051562500 7.43841767500000 
 S -5.73789365000000 0.651519515624996 6.17759967500000 
 S -5.92826565000000 4.21497951562500 6.02485267500000 
 S -2.90616065000000 1.43606051562500 3.30610567500000 
 S -2.96447665000000 5.15465351562500 3.21766467500000 
 S -3.30756765000000 1.52634151562500 7.35571267500000 
 S -3.75352765000000 5.49474251562500 7.31212667500000 
