16

 C -2.89663168437500 1.55673528125000 5.37461562812500 
 C -3.18813668437500 5.24695128125000 5.52825262812500 
 C -4.11120968437500 0.961958281250002 4.82305462812500 
 C -4.21974968437500 4.60246628125000 4.84351762812500 
 N -1.98862468437500 1.82002128125000 4.45427562812500 
 N -2.09912768437500 5.40176228125000 4.76145562812500 
 N -4.03090368437500 0.750559281250002 3.53297262812500 
 N -3.93330168437500 4.14788728125000 3.64640562812500 
 N -4.58063368437500 1.02615128125000 7.26716762812500 
 N -4.92859868437500 4.88272928125000 7.32533462812500 
 S -5.30431968437500 0.456608281250002 5.89001662812500 
 S -5.64123668437500 4.43422628125000 5.89339862812500 
 S -2.53633068437500 1.16873428125000 3.03597962812500 
 S -2.36101568437500 4.63263528125000 3.36169162812500 
 S -3.07789068437500 1.72688928125000 7.15066062812500 
 S -3.36994568437500 5.42419728125000 7.25984962812500 
