16

 C -3.08792881562500 1.02646035625000 5.45981631562500 
 C -3.11299481562500 4.90757035625000 5.52099531562500 
 C -4.26329181562500 0.661394356250001 4.71884531562500 
 C -4.39170281562500 4.65855735625000 4.91611231562500 
 N -1.99060481562500 1.09063635625000 4.72294631562500 
 N -2.10142781562500 4.95426235625000 4.64509331562500 
 N -4.05405881562500 0.559933356250001 3.42505231562500 
 N -4.29712081562500 4.40395535625000 3.60006831562500 
 N -4.90097081562500 0.732299356250000 7.21692031562500 
 N -4.82835281562500 5.03557235625000 7.36551731562500 
 S -5.66399381562500 0.379725356250001 5.79869931562500 
 S -5.73100881562500 5.00743635625000 5.96588831562500 
 S -2.47278781562500 0.919043356250000 3.16678331562500 
 S -2.69036581562500 4.56698635625000 3.10634031562500 
 S -3.31315381562500 1.22517835625000 7.12700131562500 
 S -3.16679281562500 5.08024935625000 7.26697031562500 
