16

 C -3.15795466875000 1.36818421250000 5.52422248750000 
 C -2.91130866875000 5.20753821250000 5.87685548750000 
 C -4.33671066875000 0.997793212500001 4.90422948750000 
 C -4.08144066875000 4.75860721250000 5.17112248750000 
 N -2.15799766875000 1.67901321250000 4.71890148750000 
 N -1.87036966875000 5.50234121250000 5.10178448750000 
 N -4.19743966875000 0.804808212500001 3.59757648750000 
 N -3.85152866875000 4.54190121250000 3.88241948750000 
 N -4.86977466875000 0.818683212500002 7.31573548750000 
 N -4.78670966875000 4.82725621250000 7.66037748750000 
 S -5.67579966875000 0.687817212500001 5.88106748750000 
 S -5.53335466875000 4.69832821250000 6.18669248750000 
 S -2.71811566875000 1.45596221250000 3.18707848750000 
 S -2.32716166875000 5.12582721250000 3.57257648750000 
 S -3.26245666875000 1.35179921250000 7.27552548750000 
 S -3.18112866875000 5.35466421250000 7.54644948750000 
