16

 C -2.98845921250000 1.12786183437500 5.66681871562500 
 C -3.09453821250000 4.84178383437500 5.47932871562500 
 C -4.12818721250000 0.470456834374996 4.99504771562500 
 C -4.33347321250000 4.43027383437500 4.89621971562500 
 N -2.02231421250000 1.52769383437500 4.82510571562500 
 N -2.04237521250000 4.97737183437500 4.66679671562500 
 N -3.97049121250000 0.252002834374996 3.68955471562500 
 N -4.22470421250000 4.16198283437500 3.60899871562500 
 N -4.89062821250000 0.983399834374996 7.43931271562500 
 N -4.92251921250000 5.16828083437500 7.21966571562500 
 S -5.49508321250000 0.314384834374996 6.01893971562500 
 S -5.67086521250000 4.33256383437500 5.98175371562500 
 S -2.51443921250000 0.914418834374996 3.35745571562500 
 S -2.67779621250000 4.55613683437500 3.17635271562500 
 S -3.35273621250000 1.58837083437500 7.33906271562500 
 S -3.29039421250000 5.19277783437500 7.15375571562500 
