16

 C -3.15910799062500 1.36588706875000 5.58895161875000 
 C -2.90004299062500 5.26063706875000 5.41935261875000 
 C -4.36354999062500 0.789288068749997 5.06076161875000 
 C -4.16075299062500 4.88030906875000 4.85146761875000 
 N -2.26302599062500 1.62176006875000 4.67151461875000 
 N -1.97633899062500 5.52144806875000 4.55988361875000 
 N -4.35514699062500 0.623500068749997 3.71665761875000 
 N -4.16158299062500 4.84693406875000 3.55290361875000 
 N -4.72793999062500 1.24145906875000 7.56173961875000 
 N -4.61069399062500 5.02270506875000 7.37880761875000 
 S -5.61632499062500 0.585639068749997 6.29140561875000 
 S -5.38627699062500 4.67578906875000 6.00224361875000 
 S -2.81836699062500 1.04536906875000 3.19826761875000 
 S -2.66997099062500 5.29537906875000 3.02494161875000 
 S -3.21808999062500 1.75316206875000 7.26134661875000 
 S -3.01195899062500 5.39190506875000 7.16063361875000 
