16

 C -3.01310353125000 1.30479821250000 5.58633929375000 
 C -3.04554553125000 5.11542321250000 5.60602429375000 
 C -4.18339653125000 0.709459212500001 5.00440929375000 
 C -4.18489953125000 4.38927621250000 5.01624429375000 
 N -1.93841753125000 1.35470321250000 4.80259929375000 
 N -2.07490553125000 5.37656121250000 4.73906529375000 
 N -3.96361653125000 0.394540212500002 3.74293729375000 
 N -3.98684253125000 4.02750021250000 3.76626429375000 
 N -4.91423453125000 1.31805221250000 7.38440829375000 
 N -4.81268053125000 4.82520121250000 7.46146629375000 
 S -5.57584253125000 0.668579212500002 6.00597329375000 
 S -5.57201053125000 4.40922621250000 6.04993429375000 
 S -2.39349353125000 0.727266212500002 3.28903529375000 
 S -2.51212953125000 4.59506721250000 3.30510329375000 
 S -3.24408953125000 1.60672521250000 7.28147029375000 
 S -3.19553453125000 5.36403221250000 7.34926829375000 
