16

 C -3.09353978437500 1.52053676250000 5.30986177187500 
 C -3.26237778437500 5.21003876250001 5.75210277187500 
 C -4.19858478437500 0.738346762500004 4.83975677187500 
 C -4.44936278437500 4.68424276250000 5.08985377187500 
 N -2.12202978437500 1.63660176250001 4.39701477187500 
 N -2.17879678437500 5.41808576250000 4.94302977187500 
 N -4.08218978437500 0.177031762500005 3.64774277187500 
 N -4.19921078437500 4.47614276250000 3.78172277187500 
 N -4.95727178437500 1.44148676250000 7.19246877187500 
 N -4.96216878437500 5.02246776250001 7.56231077187500 
 S -5.63063078437500 0.810717762500005 5.79979477187500 
 S -5.85096978437500 4.56398876250000 6.19990877187500 
 S -2.65071778437500 0.755291762500005 3.09636677187500 
 S -2.58540678437500 5.02281676250001 3.43426177187500 
 S -3.38938878437500 2.04347476250000 7.02092577187500 
 S -3.46112178437500 5.71392076250000 7.35298777187500 
