16

 C -3.49913336562500 1.80711177812500 5.59457874062500 
 C -2.86659836562500 5.16623277812500 5.55731574062500 
 C -4.65032336562500 1.24700377812500 4.93057174062500 
 C -4.18440136562500 4.92276677812500 4.96484274062500 
 N -2.43196136562500 2.08601677812500 4.83327974062500 
 N -1.89389936562500 5.22736577812500 4.63405674062500 
 N -4.45345036562500 1.01844877812500 3.62672374062500 
 N -4.24831736562500 4.76860377812500 3.66981674062500 
 N -5.09153036562500 1.31870277812500 7.43995074062500 
 N -4.68408236562500 4.91653577812500 7.49280074062500 
 S -6.00801036562500 1.17015377812500 6.06366074062500 
 S -5.51000336562500 4.87077677812500 6.05645574062500 
 S -2.80147236562500 1.41086077812500 3.34314274062500 
 S -2.73007836562500 4.96531677812500 3.13957074062500 
 S -3.55620236562500 1.82874477812500 7.25919474062500 
 S -3.00977436562500 5.28714277812500 7.30456874062500 
