16

 C -3.18716725312500 1.66105992500000 5.38172404062500 
 C -3.03165325312500 4.97714692500000 5.47199204062500 
 C -4.37714925312500 1.19675292500000 4.67591204062500 
 C -4.30857125312500 4.62103992500000 4.84529604062500 
 N -2.17451425312500 1.92752792500000 4.57092004062500 
 N -1.94544525312500 5.09277992500000 4.69969504062500 
 N -4.24212625312500 1.22387692500000 3.34742904062500 
 N -4.14507925312500 4.63798792500000 3.51360404062500 
 N -5.00159825312500 1.05114692500000 7.22987204062500 
 N -4.82903525312500 4.93626992500000 7.32259304062500 
 S -5.69946525312500 0.930808924999999 5.75338704062500 
 S -5.74579625312500 4.65508392500000 5.90025404062500 
 S -2.63483325312500 1.62637992500000 3.05911804062500 
 S -2.57166025312500 4.96701492500000 3.15846904062500 
 S -3.41345825312500 1.65755692500000 7.10139304062500 
 S -3.17791725312500 5.01415892500000 7.20582204062500 
