16

 C -3.07964734375000 1.58277071250000 5.38833087187500 
 C -3.26300234375000 5.14037971250000 5.56144787187500 
 C -4.32396634375000 1.03968971250000 4.86590187187500 
 C -4.45490834375000 4.64699671250000 4.89643087187500 
 N -2.02024434375000 1.63656971250000 4.57409487187500 
 N -2.21553334375000 5.34288671250000 4.76134887187500 
 N -4.23288134375000 0.712106712500002 3.60069487187500 
 N -4.33115634375000 4.67328671250000 3.57953987187500 
 N -4.65083734375000 1.14283971250000 7.39813587187500 
 N -5.00159834375000 4.85397771250000 7.46069987187500 
 S -5.60094834375000 1.02568771250000 6.04154587187500 
 S -5.78846734375000 4.33786471250000 6.02338487187500 
 S -2.69675334375000 1.12787071250000 3.14574887187500 
 S -2.71750734375000 5.07541871250000 3.27111187187500 
 S -3.12801134375000 1.73226671250000 7.09682687187500 
 S -3.31200934375000 5.05854171250000 7.29253987187500 
