16

 C -3.17551026562500 1.01329662812500 5.61349735312500 
 C -3.53312926562500 4.97378262812500 5.10636835312500 
 C -4.43429126562500 0.686903628125000 4.97527335312500 
 C -4.68382726562500 4.29609362812500 4.51606335312500 
 N -2.23467126562500 1.43676162812500 4.72921635312500 
 N -2.57365826562500 5.30284162812500 4.23344235312500 
 N -4.35002626562500 0.646375628125000 3.62696835312500 
 N -4.47938926562500 3.91068462812500 3.26854435312500 
 N -4.75945726562500 0.762763628125000 7.52762235312500 
 N -5.31831826562500 4.76827562812500 6.98113135312500 
 S -5.67184126562500 0.571934628125000 6.13112235312500 
 S -5.89656826562500 3.87941662812500 5.64722135312500 
 S -2.80268026562500 1.07699662812500 3.24313835312500 
 S -2.99823726562500 4.55076962812500 2.83131535312500 
 S -3.11196026562500 1.19229162812500 7.33430835312500 
 S -3.69295226562500 5.18935762812500 6.82312335312500 
