16

 C -3.21498255312500 1.67917941250000 5.44672457812500 
 C -3.03981255312500 4.88799041250000 5.57566657812500 
 C -4.43950555312500 1.36508341250000 4.67377057812500 
 C -4.28101755312500 4.62974141250000 4.87256557812500 
 N -2.18294955312500 1.87757941250000 4.66942757812500 
 N -2.04669255312500 5.12174341250000 4.75535957812500 
 N -4.26117355312500 1.21471341250000 3.36146857812500 
 N -4.17059755312500 4.44137441250000 3.56134457812500 
 N -4.89832355312500 1.10167341250000 7.19127057812500 
 N -4.88833555312500 4.76649841250000 7.36033857812500 
 S -5.73625255312500 0.923718412499998 5.73150557812500 
 S -5.62453955312500 4.59119841250000 5.91700857812500 
 S -2.71885155312500 1.65069841250000 3.04242657812500 
 S -2.59768855312500 4.85757841250000 3.21356557812500 
 S -3.35336855312500 1.69668041250000 7.17788257812500 
 S -3.25478155312500 5.19679741250000 7.25055257812500 
