16

 C -2.84316455937500 1.29903478125000 5.73089062500000 
 C -2.93593755937500 4.89605678125000 5.40509362500000 
 C -4.16424755937500 1.21604678125000 5.21058162500000 
 C -4.14777255937500 4.56022078125000 4.68554662500000 
 N -1.91248655937500 1.00097678125000 4.76100862500000 
 N -1.84379555937500 4.88198378125000 4.63407162500000 
 N -4.37342555937500 0.742411781249996 3.98544362500000 
 N -4.01775155937500 4.31438278125000 3.39827562500000 
 N -4.56313755937500 1.61733778125000 7.65397362500000 
 N -4.78058255937500 4.88128178125000 7.25581962500000 
 S -5.49197355937500 1.42951478125000 6.29200162500000 
 S -5.57825455937500 4.51106678125000 5.88344962500000 
 S -2.79423655937500 0.581494781249996 3.37701162500000 
 S -2.32702955937500 4.45986978125000 3.12913462500000 
 S -2.88262555937500 1.53456278125000 7.42837962500000 
 S -3.03943655937500 4.86405678125000 7.10089562500000 
