16

 C -3.13811460000000 1.31766240937500 5.89591137187500 
 C -3.05035960000000 4.89315540937500 5.67085637187500 
 C -4.41989660000000 0.892403409375001 5.32069737187500 
 C -4.24755360000000 4.43641940937500 4.99997037187500 
 N -2.27275960000000 1.58998640937500 4.91881437187500 
 N -1.98978360000000 5.27366440937500 4.94022137187500 
 N -4.39825160000000 0.716282409375001 4.03178937187500 
 N -4.04206760000000 4.40862140937500 3.67950537187500 
 N -4.90244460000000 1.33466140937500 7.77770637187500 
 N -4.83857860000000 4.86545740937500 7.58024337187500 
 S -5.73694960000000 1.09404640937500 6.40662737187500 
 S -5.64221960000000 4.42807440937500 6.09475237187500 
 S -2.94259860000000 1.06276540937500 3.46147937187500 
 S -2.53752460000000 5.03320040937500 3.39665737187500 
 S -3.31614960000000 1.77909640937500 7.67146437187500 
 S -3.19394560000000 5.18656140937500 7.36012837187500 
