16

 C -2.91872540937500 1.26538702187499 5.68754730312500 
 C -2.97866140937500 4.76534102187499 5.40047130312500 
 C -4.26736140937500 1.07361502187499 5.25251730312500 
 C -4.20911640937500 4.50394902187499 4.73123730312500 
 N -1.98466340937500 0.914032021874993 4.73090630312500 
 N -1.87918540937500 4.92080602187499 4.65660430312500 
 N -4.37904340937500 0.642639021874993 3.99926230312500 
 N -3.99080240937500 4.27853702187499 3.42383030312500 
 N -4.52348940937500 1.74466902187499 7.71810530312500 
 N -4.59683340937500 4.89120202187499 7.24483530312500 
 S -5.48421640937500 1.41658502187499 6.36377330312500 
 S -5.50941740937500 4.57565002187499 5.86023930312500 
 S -2.88823040937500 0.565787021874995 3.39553530312500 
 S -2.39325040937500 4.57401902187499 3.12426230312500 
 S -2.89545840937500 1.56248302187499 7.42822930312500 
 S -3.02283540937500 4.79645802187499 7.11677030312500 
