16

 C -3.17033552187500 1.25099907187500 5.41497160312500 
 C -3.13565752187500 5.32463907187500 5.62729360312500 
 C -4.32503052187500 0.584198071875003 4.81537260312500 
 C -4.27293252187500 4.72546807187500 5.07077560312500 
 N -2.10513452187500 1.19713707187500 4.63111060312500 
 N -2.14366852187500 5.53930807187500 4.74290860312500 
 N -4.06239352187500 1.964071875002027E-003 3.63490460312500 
 N -4.13418952187500 4.42442407187500 3.75805460312500 
 N -5.03365352187500 1.20739307187500 7.19631860312500 
 N -4.93015952187500 5.13704807187500 7.46099960312500 
 S -5.75586452187500 0.611702071875002 5.83818360312500 
 S -5.71406752187500 4.75371707187500 5.98982760312500 
 S -2.54080452187500 0.454093071875002 3.22704260312500 
 S -2.63404352187500 4.91838107187500 3.27019860312500 
 S -3.48733952187500 1.83693707187500 7.00031560312500 
 S -3.32673952187500 5.70070407187500 7.34642960312500 
