16

 C -2.87864751250000 1.28557575625000 5.66784538125000 
 C -2.98074451250000 4.79178175625000 5.38352438125000 
 C -4.25606751250000 1.10100375625000 5.24975738125000 
 C -4.21974751250000 4.51117275625000 4.72356138125000 
 N -1.97085551250000 0.912182756249997 4.73049738125000 
 N -1.86212651250000 4.92216775625000 4.66123038125000 
 N -4.34355151250000 0.650741756249998 4.00428538125000 
 N -3.98647851250000 4.27695475625000 3.39242738125000 
 N -4.54116451250000 1.73720375625000 7.72656938125000 
 N -4.60113451250000 4.89687575625000 7.23377138125000 
 S -5.48376751250000 1.41334175625000 6.33808038125000 
 S -5.52156151250000 4.56663275625000 5.87434638125000 
 S -2.89810751250000 0.571768756249996 3.40164438125000 
 S -2.38474751250000 4.55563375625000 3.13537038125000 
 S -2.89158351250000 1.54998875625000 7.43076138125000 
 S -3.03158351250000 4.80135475625000 7.11269538125000 
