16

 C -2.86568466562500 1.56261462500000 5.46581480000000 
 C -3.46768866562500 5.14249162500000 5.18040680000000 
 C -4.02544666562500 0.997189625000002 4.75407580000000 
 C -4.56397766562500 4.29757562500000 4.65592780000000 
 N -1.81664066562500 1.64713062500000 4.65977480000000 
 N -2.36331166562500 5.13800362500000 4.47418280000000 
 N -3.91631966562500 0.891461625000002 3.43859480000000 
 N -4.37015266562500 3.97679362500000 3.38049280000000 
 N -4.79369666562500 1.43118262500000 7.17998880000000 
 N -5.33144966562500 5.12856162500000 6.93077180000000 
 S -5.39190266562500 0.795583625000002 5.77098480000000 
 S -5.94718566562500 4.09389062500000 5.77765480000000 
 S -2.34670266562500 1.12022062500000 3.13555680000000 
 S -2.75959066562500 4.39937462500000 3.00943680000000 
 S -3.22516066562500 2.00244262500000 7.05538980000000 
 S -3.85330066562500 5.75829962500000 6.71403280000000 
