16

 C -3.16237142500000 1.61033816250000 5.56018203437500 
 C -3.18512842500000 5.00500216250000 5.51607803437500 
 C -4.49315842500000 1.38760716250000 5.01601003437500 
 C -4.39424942500000 4.61847316250000 4.86311103437500 
 N -2.16852942500000 1.77404216250000 4.67427803437500 
 N -2.15935742500000 5.26140816250000 4.69149503437500 
 N -4.46315642500000 1.32018716250000 3.65948203437500 
 N -4.28858242500000 4.52743316250000 3.54005203437500 
 N -4.68970742500000 1.62289416250000 7.65784203437500 
 N -4.90220642500000 4.60678616250000 7.39237103437500 
 S -5.69930042500000 1.47030216250000 6.34362103437500 
 S -5.69564042500000 4.50298616250000 5.93794503437500 
 S -2.93369942500000 1.57250116250000 3.16444303437500 
 S -2.79166842500000 5.00704216250000 3.18966003437500 
 S -3.06227342500000 1.65357916250000 7.33692703437500 
 S -3.22522742500000 4.83885816250000 7.26023203437500 
