16

 C -3.24282317812500 1.39262474375000 5.52564482812500 
 C -3.09177317812500 5.63483774375000 5.62828282812500 
 C -4.47276617812500 0.870780743750002 4.83901782812500 
 C -4.21389417812500 5.02216774375000 4.92104082812500 
 N -2.25579517812500 1.60260374375000 4.70796582812500 
 N -2.16218117812500 6.08694374375000 4.79621382812500 
 N -4.25872417812500 0.537353743750002 3.57073382812500 
 N -4.00542617812500 4.76064374375000 3.65044282812500 
 N -5.11847517812500 1.22501574375000 7.30929782812500 
 N -4.89549317812500 5.06400774375000 7.46526782812500 
 S -5.88840517812500 0.762444743750001 5.88499882812500 
 S -5.45579217812500 4.53164574375000 5.96816982812500 
 S -2.72573217812500 0.985789743750002 3.18821882812500 
 S -2.52917517812500 5.45559974375000 3.29096582812500 
 S -3.47057717812500 1.50117174375000 7.24406482812500 
 S -3.35891317812500 5.82492874375000 7.35279582812500 
