16

 C -3.01568972500000 1.44342082812500 5.55037280312500 
 C -3.40576272500000 5.15944182812500 5.16870880312500 
 C -4.19552472500000 0.977699828124998 4.83205280312500 
 C -4.41448472500000 4.34840382812500 4.56926180312500 
 N -1.96718072500000 1.50864382812500 4.75376480312500 
 N -2.29968472500000 5.29671582812500 4.45667480312500 
 N -4.04071672500000 0.793068828124999 3.54983180312500 
 N -4.17266172500000 3.98284782812500 3.31185880312500 
 N -4.94133372500000 1.07135582812500 7.34619480312500 
 N -5.16791872500000 5.04185782812500 6.95961980312500 
 S -5.60013772500000 0.765077828124999 5.81361880312500 
 S -5.72600872500000 4.10432582812500 5.67337480312500 
 S -2.39048572500000 1.14343682812500 3.17794780312500 
 S -2.54317172500000 4.50257982812500 3.04200880312500 
 S -3.41338272500000 1.71840582812500 7.23921580312500 
 S -3.77003972500000 5.84352782812500 6.65061780312500 
