16

 C -3.22053398125000 1.44106991250000 5.55965492812500 
 C -2.99992398125000 5.22331091250000 5.44777592812500 
 C -4.36270998125000 0.761583912499999 5.03140492812500 
 C -4.26239798125000 4.91323191250000 4.83072692812500 
 N -2.23543598125000 1.51071091250000 4.65081292812500 
 N -1.96120798125000 5.40197591250000 4.59505692812500 
 N -4.33211298125000 0.455472912499999 3.76558292812500 
 N -4.14723898125000 4.87859091250000 3.48000692812500 
 N -4.99082598125000 1.28408491250000 7.41852892812500 
 N -4.66633498125000 5.13198091250000 7.38376092812500 
 S -5.62122898125001 0.387619912499998 6.16179692812500 
 S -5.52429498125001 4.64614491250000 6.02572392812500 
 S -2.91119398125000 1.04926191250000 3.21841792812500 
 S -2.52845398125000 5.20137191250000 3.07794392812500 
 S -3.49247298125001 1.85075291250000 7.25694992812500 
 S -2.96265098125000 5.40999891250000 7.12358092812500 
