16

 C -3.43742870625000 1.21374479375000 5.81100409062500 
 C -3.21302570625000 4.91214279375000 5.22101709062500 
 C -4.55740370625000 0.857896793750000 5.06933009062500 
 C -4.46647870625000 4.56252979375000 4.59461309062500 
 N -2.37423470625000 1.42299579375000 5.03653709062500 
 N -2.20200170625000 5.29718079375000 4.40368909062500 
 N -4.43715370625000 0.842221793750000 3.73420009062500 
 N -4.28371370625000 4.37914379375000 3.28421609062500 
 N -5.21220470625000 0.834352793750000 7.49380609062500 
 N -5.04897470625000 4.77462679375000 7.06447909062500 
 S -5.99362070625000 0.750812793750000 6.00485509062500 
 S -5.84928270625000 4.46230779375000 5.65601309062500 
 S -2.81632370625000 1.23603579375000 3.45335109062500 
 S -2.74624470625000 4.84420979375000 2.88868009062500 
 S -3.64436570625000 1.49014879375000 7.51803609062500 
 S -3.45895370625000 5.38988779375000 6.87905209062500 
