16

 C -3.15729319062500 1.13738038125000 5.48758967500000 
 C -3.09068719062500 5.41512038125000 5.63353667500000 
 C -4.44855619062500 0.790653381250000 4.90374467500000 
 C -4.29370919062500 4.96847838125000 4.93930267500000 
 N -2.14108619062500 1.41325038125000 4.65415867500000 
 N -2.13309019062500 5.90022838125000 4.83268167500000 
 N -4.35073819062500 0.677359381250001 3.57216267500000 
 N -4.14351419062500 4.83828338125000 3.64503667500000 
 N -5.00347319062500 0.934954381250000 7.41415567500000 
 N -4.82252019062500 4.74942638125000 7.45351467500000 
 S -5.78886219062500 0.459903381250000 6.04318867500000 
 S -5.52644019062500 4.34644338125000 5.99641567500000 
 S -2.78445919062500 1.08906038125000 3.13271867500000 
 S -2.64704319062500 5.60017638125000 3.29110167500000 
 S -3.33738819062500 1.23946838125000 7.25266567500000 
 S -3.36902619062500 5.46696238125000 7.35860167500000 
