16

 C -3.12554759687501 1.72869840937500 5.77868120000000 
 C -3.19239859687501 5.28115040937500 5.88992320000000 
 C -4.29922859687501 1.11472840937500 5.09650320000000 
 C -4.31264959687501 4.67400040937500 5.27485920000000 
 N -2.14610359687501 1.89685040937500 4.92648520000000 
 N -2.14666459687501 5.51722040937500 5.06921320000000 
 N -4.17844259687501 0.788955409375002 3.84551220000000 
 N -4.12228359687501 4.52092940937500 3.95118820000000 
 N -5.05523959687501 1.11407440937500 7.44237120000000 
 N -4.69566259687500 4.85477540937500 7.89854920000000 
 S -5.68458159687501 0.662463409375001 6.00162120000000 
 S -5.62936059687501 4.43919940937500 6.45477220000000 
 S -2.72370159687501 1.43717340937500 3.35065920000000 
 S -2.58632759687501 5.05892940937500 3.56396720000000 
 S -3.58298459687501 1.89115140937500 7.48719420000000 
 S -3.16936159687501 5.62585140937500 7.53706520000000 
