16

 C -3.16282725312500 1.45935479999999 5.34562941875000 
 C -3.13135925312500 5.29504179999999 5.53898941875000 
 C -4.38551925312500 0.888846799999995 4.69001641875000 
 C -4.35360325312500 4.75121580000000 4.97720941875000 
 N -2.24649925312500 1.84572080000000 4.44456241875000 
 N -2.20932825312500 5.56763779999999 4.61652641875000 
 N -4.39279725312500 0.914199799999995 3.35819441875000 
 N -4.33861525312500 4.54533080000000 3.67616441875000 
 N -4.77907325312500 0.690246799999995 7.17112441875000 
 N -4.84214625312500 4.94403680000000 7.55005241875000 
 S -5.63782225312500 0.396410799999995 5.77149041875000 
 S -5.61127425312500 4.53573180000000 6.14045241875000 
 S -2.87216825312500 1.52634079999999 2.97128641875000 
 S -2.79646525312500 5.07221580000000 3.14303341875000 
 S -3.30368825312500 1.45654079999999 7.02524541875000 
 S -3.29875425312500 5.50068579999999 7.26228341875000 
