16

 C -3.02708530312500 1.28405206250000 5.53326062812500 
 C -3.20573230312500 5.07349706250000 5.52853762812500 
 C -4.29148030312500 1.20472606250000 4.89541662812500 
 C -4.43363330312500 4.62718306250000 4.89263962812500 
 N -1.99658530312500 1.30960306250000 4.70901662812500 
 N -2.10175630312500 5.10463906250000 4.74974962812500 
 N -4.16461030312500 0.972528062499998 3.60102362812500 
 N -4.28596630312500 4.31728506250000 3.61518462812500 
 N -4.86130530312500 1.49531206250000 7.32477262812500 
 N -5.02618030312500 5.18117406250000 7.32003162812500 
 S -5.64119630312500 1.52380406250000 5.86198462812500 
 S -5.76604230312500 4.56897806250000 5.97860462812500 
 S -2.60477430312500 1.05719806250000 3.13304262812500 
 S -2.73964530312500 4.63983006250000 3.20923562812500 
 S -3.19077230312500 1.55729206250000 7.23584662812500 
 S -3.42063530312500 5.46498906250000 7.17436462812500 
