16

 C -3.23251024375000 1.41064855625000 5.63580874375000 
 C -3.02616924375000 5.19237855625000 5.48029674375000 
 C -4.45007724375000 1.15636855625000 4.84035674375000 
 C -4.27674224375000 4.71308055625000 4.84465874375000 
 N -2.16913324375000 1.67751255625000 4.87102274375000 
 N -2.00540924375000 5.33667955625000 4.65198574375000 
 N -4.24018424375000 1.28120155625000 3.53337374375000 
 N -4.19606624375000 4.75223955625000 3.52576274375000 
 N -5.06639124375000 1.07898955625000 7.43203174375000 
 N -4.82012224375000 5.25586955625000 7.26829774375000 
 S -5.75617924375000 0.884560556249999 5.90730874375000 
 S -5.67567624375000 4.63799655625000 6.00522474375000 
 S -2.66197824375000 1.77457455625000 3.31359374375000 
 S -2.59172724375000 5.10975755625000 3.13600174375000 
 S -3.41568324375000 1.15961355625000 7.34689974375000 
 S -3.18942324375000 5.47411355625000 7.16714674375000 
