16

 C -3.27668191562500 1.19805803125000 5.53732270000000 
 C -3.03713591562500 5.08352303125000 5.45413670000000 
 C -4.57084091562500 0.898006031250003 4.95318370000000 
 C -4.25178491562500 4.78573803125000 4.75468870000000 
 N -2.29484391562500 1.35417303125000 4.63843370000000 
 N -1.98505091562500 5.22687303125000 4.66984070000000 
 N -4.58313291562500 0.638771031250002 3.63100370000000 
 N -4.15150291562500 4.77930103125000 3.43364670000000 
 N -4.81549691562500 0.790957031250003 7.50760570000000 
 N -4.80560491562500 4.61995303125000 7.26808370000000 
 S -5.83084991562500 0.849596031250002 6.17182870000000 
 S -5.64285391562500 4.62085003125000 5.85301170000000 
 S -3.04877091562500 1.04635803125000 3.17931870000000 
 S -2.53015791562500 5.02283303125000 3.08226570000000 
 S -3.25059591562500 1.46864103125000 7.30418770000000 
 S -3.25904291562500 5.14512103125000 7.15671270000000 
