16

 C -3.22061422500000 1.26695134687500 5.55372459375000 
 C -3.23906022500000 4.89229134687500 5.60383259375000 
 C -4.43661822500000 0.946011346874998 4.84549359375000 
 C -4.46606422500000 4.48054234687500 4.88152559375000 
 N -2.09761922500000 1.44506534687500 4.89926859375000 
 N -2.18607922500000 5.13907534687500 4.78469359375000 
 N -4.25218122500000 0.925509346874997 3.55815159375000 
 N -4.39262622500000 4.44160534687500 3.57035459375000 
 N -4.95643622500000 1.28690634687500 7.38730259375000 
 N -5.27199922500000 4.86846934687500 7.27483059375000 
 S -5.77102022500000 0.868629346874997 6.01898959375000 
 S -5.85484822500000 4.07818334687500 5.82639859375000 
 S -2.54986922500000 1.25821134687500 3.31141359375000 
 S -2.81892022500000 4.88106634687500 3.21124559375000 
 S -3.36637122500000 1.58857834687500 7.25758259375000 
 S -3.66956322500000 5.07539134687500 7.29968059375000 
