16

 C -3.16392627500000 1.29340316250000 5.28152461562500 
 C -2.87584727500000 4.98337616250000 5.66171261562500 
 C -4.28302627500000 0.795766162500001 4.61377261562500 
 C -4.11469627500000 4.50821816250000 5.10030861562500 
 N -2.14372627500000 1.60144016250000 4.50304061562500 
 N -1.97804527500000 5.23501516250000 4.71409561562500 
 N -4.07742427500000 0.595361162500000 3.31417761562500 
 N -4.10420427500000 4.23379716250000 3.79748261562500 
 N -4.82196827500000 0.752078162500000 7.07361161562500 
 N -4.53801827500000 4.64486316250000 7.67440061562500 
 S -5.61602327500000 0.297950162500000 5.64492661562500 
 S -5.42009127500000 4.49337216250000 6.23633461562500 
 S -2.61987927500000 1.28877816250000 3.01040661562500 
 S -2.65844927500000 4.79991016250000 3.28053761562500 
 S -3.32575227500000 1.42043116250000 6.96877361562500 
 S -2.94016527500000 5.11561016250000 7.39544761562500 
