16

 C -3.24100713750000 1.58321154375000 5.45805613750000 
 C -2.97099113750000 5.15406954375000 5.59964813750000 
 C -4.47842513750000 1.07386554375000 4.90455813750000 
 C -4.18063213750000 4.62195254375000 5.00819713750000 
 N -2.24939513750000 1.76056554375000 4.56742813750000 
 N -1.95040113750000 5.15846154375000 4.69756913750000 
 N -4.45113513750000 0.926747543750000 3.59202613750000 
 N -4.12538513750000 4.44057754375000 3.65474413750000 
 N -4.85127013750000 1.34701254375000 7.47151413750000 
 N -4.76115313750000 5.09673054375000 7.52948113750000 
 S -5.76553813750000 0.920816543750001 6.17126213750000 
 S -5.58479213750000 4.72610854375000 6.09998813750000 
 S -2.95554013750000 1.42015554375000 3.06097313750000 
 S -2.51455213750000 4.67940254375000 3.23595213750000 
 S -3.24520113750000 1.74796854375000 7.18994113750000 
 S -3.13057713750000 5.35804354375000 7.25078513750000 
