16

 C -3.37783087812500 1.45080786562500 5.51451051562500 
 C -3.43092087812500 5.21773486562500 5.10889251562500 
 C -4.60096987812500 0.922038865625001 4.95036851562500 
 C -4.52830287812500 4.45993686562500 4.55764051562500 
 N -2.36234987812500 1.61799286562500 4.66601251562500 
 N -2.35694087812500 5.39038886562500 4.32057551562500 
 N -4.47122087812500 0.619395865625001 3.67569551562500 
 N -4.38248387812500 4.29072386562500 3.26147051562500 
 N -4.95870087812500 1.15564686562500 7.40923951562500 
 N -5.11920287812500 4.72329286562500 7.04114551562500 
 S -5.90517087812500 0.763175865625001 6.07549051562500 
 S -5.75657087812500 3.98431286562500 5.68179851562500 
 S -2.96338887812500 1.05668386562500 3.24463551562500 
 S -2.81063387812500 4.71835486562500 2.89695351562500 
 S -3.39977087812500 1.67036886562500 7.21531651562500 
 S -3.53756787812500 5.31030286562500 6.85548551562500 
