16

 C -3.47000333437500 1.37507920000000 5.38403710000000 
 C -3.28815133437500 5.02625120000000 5.76521510000000 
 C -4.62616833437500 0.964805200000001 4.59908510000000 
 C -4.56976933437500 4.71686120000000 5.14287010000000 
 N -2.42264433437500 1.61859920000000 4.64121910000000 
 N -2.26138233437500 5.18468720000000 4.98541610000000 
 N -4.43162433437500 0.925540200000000 3.30218910000000 
 N -4.41250433437500 4.62816620000000 3.84147910000000 
 N -5.28991533437500 0.847185200000001 7.19201310000000 
 N -5.04388933437500 4.95248420000000 7.64439810000000 
 S -5.96211733437500 0.575918200000001 5.70456410000000 
 S -5.89989833437500 4.47401920000000 6.29570610000000 
 S -2.89592233437500 1.57949420000000 3.02798610000000 
 S -2.87238233437500 4.89081720000000 3.44694910000000 
 S -3.76962133437500 1.57579420000000 7.05697110000000 
 S -3.43590033437500 5.17310120000000 7.50608610000000 
