16

 C -3.11197462812500 1.53192354687500 5.69665089062500 
 C -3.18097262812500 4.88560054687500 5.59063989062500 
 C -4.27610562812500 1.18577054687500 4.90663089062500 
 C -4.32598262812500 4.44705154687500 4.87427689062500 
 N -1.95826262812500 1.70592154687500 5.01789489062500 
 N -2.04912962812500 4.94411054687500 4.86679689062500 
 N -3.94338462812500 0.997451546874996 3.65328889062500 
 N -4.03429562812500 4.13476054687500 3.63125889062500 
 N -4.93889062812500 1.10608954687500 7.39605289062500 
 N -5.26900362812500 4.61834054687500 7.20030789062500 
 S -5.67748062812500 1.08711454687500 5.88801489062500 
 S -5.85269962812500 4.38165854687500 5.67715989062500 
 S -2.30616162812500 1.31032654687500 3.48592589062500 
 S -2.44884062812500 4.40523554687500 3.33544689062500 
 S -3.35532762812500 1.61058654687500 7.41543389062500 
 S -3.66042762812500 5.00210754687500 7.30050689062500 
