16

 C -3.10062620312500 1.22880934687499 5.42835932812500 
 C -3.00153820312500 5.19752734687499 5.51967032812500 
 C -4.19160020312500 0.615113346874992 4.68971432812500 
 C -4.28320620312500 4.97307934687499 4.96140032812500 
 N -2.17455120312500 1.66621134687499 4.65633732812500 
 N -2.00766520312500 5.29731834687499 4.66265332812500 
 N -4.06674020312500 0.646962346874993 3.36133132812500 
 N -4.23942120312500 4.77959434687499 3.63687932812500 
 N -4.97301920312500 0.866631346874993 7.19983432812500 
 N -4.56205720312500 5.01793834687499 7.49604832812500 
 S -5.57448920312500 0.422074346874992 5.70981532812500 
 S -5.48181020312500 4.97435934687499 6.18402232812500 
 S -2.56093820312500 1.29074734687499 3.06591532812500 
 S -2.66848520312500 4.99270034687499 3.14545232812500 
 S -3.37605720312500 1.45270234687499 7.11652232812500 
 S -3.04205820312500 5.37612734687499 7.24762032812500 
