16

 C -3.79181679062500 1.15679607500000 5.68665090625000 
 C -3.15522579062500 4.96589207500000 5.33803790625000 
 C -4.88680979062500 0.696971075000002 4.90326790625000 
 C -4.41012879062500 4.50966107500000 4.76389390625000 
 N -2.66616779062500 1.43808507500000 5.01291690625000 
 N -2.16073079062500 5.02681707500000 4.48402090625000 
 N -4.59155979062500 0.526923075000003 3.59279190625000 
 N -4.29289179062500 4.16134907500000 3.48255290625000 
 N -5.61012279062500 0.671070075000003 7.36043090625000 
 N -4.72494479062500 5.04080907500000 7.29675590625000 
 S -6.26613779062500 0.213504075000002 5.88357990625000 
 S -5.54419179062500 4.26085507500000 6.05113290625000 
 S -3.11003779062500 1.20109507500000 3.46954690625000 
 S -2.73115479062500 4.58972207500000 3.03619690625000 
 S -4.02321679062500 1.27103007500000 7.36579290625000 
 S -3.17855279062500 5.50490107500000 6.96250790625000 
