16

 C -3.10801330312500 1.25095860625000 5.47482093750000 
 C -2.86872830312500 5.25739160625000 5.49945693750000 
 C -4.22875330312500 0.888630606249997 4.68427993750000 
 C -4.13169430312500 4.92732360625000 4.85549793750000 
 N -1.95490630312500 1.50073860625000 4.79653393750000 
 N -1.88634630312500 5.23812160625000 4.58268193750000 
 N -3.95894030312500 0.764531606249996 3.33784893750000 
 N -4.18181430312500 4.66543160625000 3.56622793750000 
 N -4.94878530312500 1.27826160625000 7.21779193750000 
 N -4.76970330312500 5.15257460625000 7.35137093750000 
 S -5.60250630312500 0.665560606249997 5.81279993750000 
 S -5.47451730312500 4.95457360625000 5.89706493750000 
 S -2.28320630312500 1.05071160625000 3.30235893750000 
 S -2.60170830312500 4.86531160625000 3.13044793750000 
 S -3.29103430312500 1.39589360625000 7.16312393750000 
 S -3.10296830312500 5.46009560625000 7.26988993750000 
