16

 C -3.28400478437500 1.08848026562500 5.46751086250000 
 C -3.32592978437500 5.22439726562500 5.21110086250000 
 C -4.50160978437500 0.739369265624997 4.73473486250000 
 C -4.30841078437500 4.45240926562500 4.51276086250000 
 N -2.22269578437500 1.28143326562500 4.67589986250000 
 N -2.39662178437500 5.72957526562500 4.46306386250000 
 N -4.36372378437500 0.697871265624998 3.42541586250000 
 N -4.07309378437500 4.36493526562500 3.21826286250000 
 N -5.17940178437500 0.827359265624997 7.19128786250000 
 N -4.99798578437500 4.57225626562500 7.01187986250000 
 S -5.79476378437500 0.316288265624998 5.73134986250000 
 S -5.58274478437500 3.82144326562500 5.61538986250000 
 S -2.74736878437500 0.969706265624997 3.15126386250000 
 S -2.70465878437500 5.32757626562500 2.87467886250000 
 S -3.57293778437500 1.24152926562500 7.20056486250000 
 S -3.48824878437500 5.31253226562500 6.91945986250000 
