16

 C -3.18326710937500 1.41680129375000 5.68293710312500 
 C -2.86679710937500 5.24070129375000 5.45458910312500 
 C -4.43049110937500 1.13857129375000 5.03388710312500 
 C -4.12785710937500 4.85590229375000 4.81579810312500 
 N -2.13995610937500 1.56035329375000 4.87776010312500 
 N -1.87189710937500 5.35505629375000 4.61924810312500 
 N -4.33153610937500 1.14036629375000 3.70896810312500 
 N -4.09438110937500 4.75782329375000 3.50530610312500 
 N -4.88169410937500 1.56690229375000 7.55567210312500 
 N -4.72420010937500 5.11031529375000 7.31018410312500 
 S -5.69569110937500 0.885593293750003 6.20547210312500 
 S -5.38013510937500 4.56935229375000 5.88344410312500 
 S -2.70693210937500 1.44405129375000 3.28660010312500 
 S -2.58751810937500 5.12916429375000 3.05370310312500 
 S -3.23056410937500 1.81859829375000 7.33661410312500 
 S -3.06540110937500 5.35700129375000 7.20427010312500 
