16

 C -2.82464852812500 1.44391385937499 5.84518907187500 
 C -3.41337652812500 5.38586885937499 5.59728707187500 
 C -4.07672252812500 1.40175785937499 5.20674107187500 
 C -4.64237452812500 4.99006385937499 4.92554507187500 
 N -1.82491752812500 1.46167485937499 4.98523207187500 
 N -2.33491552812500 5.56197585937499 4.80446007187500 
 N -4.04378852812500 1.32104785937499 3.89117107187500 
 N -4.45938752812500 4.73416285937499 3.62812907187500 
 N -4.59541452812500 1.32874185937499 7.72095307187500 
 N -5.08857752812500 5.02227985937499 7.51107807187500 
 S -5.43628352812500 1.33164685937499 6.30221907187500 
 S -5.97488452812500 4.74748485937499 6.09425207187500 
 S -2.46884852812500 1.41220285937499 3.37424107187500 
 S -2.88655452812500 5.08218985937499 3.25588807187500 
 S -2.91336752812500 1.53594485937499 7.58596107187500 
 S -3.43503552812500 5.22640685937499 7.30320007187500 
