16

 C -2.93167747812500 1.50018168750000 5.32889858437500 
 C -3.15453247812500 5.15655268750000 5.44223258437500 
 C -4.12354547812500 1.16894168750000 4.67678558437500 
 C -4.31306547812500 4.55460168750000 4.79767458437500 
 N -1.89122247812500 1.63235268750000 4.50339458437500 
 N -2.13292847812500 5.28453268750000 4.62758858437500 
 N -4.03132947812500 0.928871687499997 3.35370558437500 
 N -4.12610947812500 4.29600168750000 3.50558158437500 
 N -4.80747347812500 1.19752068750000 7.24612858437500 
 N -4.79240747812500 4.68951768750000 7.33960258437500 
 S -5.54251047812500 1.03429368750000 5.77985658437500 
 S -5.58981647812500 4.18582468750000 5.98422358437500 
 S -2.48484447812500 1.29455968750000 2.93221758437500 
 S -2.60796447812500 4.84570968750000 3.10955558437500 
 S -3.20156047812500 1.63353968750000 7.08144458437500 
 S -3.24170947812500 5.27701468750000 7.17579558437500 
