16

 C -2.98227343125000 1.28359715312500 5.67221114062500 
 C -2.98684943125000 5.15890615312500 5.41011914062500 
 C -4.18857243125000 0.800168153125001 5.02067214062500 
 C -4.03590043125000 4.31790215312500 4.98627214062500 
 N -1.93264743125000 1.45649715312500 4.85831814062500 
 N -1.99800043125000 5.20526215312500 4.48992214062500 
 N -4.07605543125000 0.687481153125001 3.66952614062500 
 N -3.97359343125000 3.87708015312500 3.72538314062500 
 N -4.73960343125000 0.981051153125001 7.49797614062500 
 N -4.82943743125000 5.18309715312500 7.29777214062500 
 S -5.55474243125000 0.768294153125001 6.04519814062500 
 S -5.42185343125000 4.17144615312500 6.07179714062500 
 S -2.53098643125000 0.977030153125001 3.33302714062500 
 S -2.51204643125000 4.36816615312500 3.16703114062500 
 S -3.21637543125000 1.58806815312500 7.39196214062500 
 S -3.21157643125000 5.65152915312500 7.03186114062500 
