16

 C -3.18592254687500 1.47218211875000 5.64163753437500 
 C -3.46506154687500 5.25018211875000 5.45000553437500 
 C -4.36208154687500 0.861827118750000 5.05541453437500 
 C -4.62883754687500 4.59766211875000 4.83370453437500 
 N -2.17955154687500 1.71971011875000 4.76524453437500 
 N -2.47492954687500 5.58955811875000 4.64573853437500 
 N -4.26563354687500 0.616994118750000 3.76104253437500 
 N -4.42140754687500 4.39875711875000 3.56130153437500 
 N -4.89695654687500 0.815096118750000 7.60194953437500 
 N -5.36640454687500 4.98219611875000 7.23985353437500 
 S -5.64325354687500 0.436581118750000 6.21607453437500 
 S -5.89056154687500 4.10149911875000 5.89563853437500 
 S -2.77847754687500 1.22616411875000 3.27785153437500 
 S -2.90498054687500 4.98595611875000 3.16171653437500 
 S -3.42790654687500 1.56412611875000 7.37397453437500 
 S -3.86556154687500 5.64792711875000 7.16361053437500 
