16

 C -2.93811125000000 2.06329724062500 5.40868638125000 
 C -3.00123425000000 5.16567424062500 5.43372438125000 
 C -4.08794225000000 1.48104924062500 4.82244438125000 
 C -4.25511025000000 4.88531024062500 4.71593338125000 
 N -1.94247925000000 2.31247424062500 4.58163538125000 
 N -1.90921925000000 5.20661124062500 4.69318438125000 
 N -3.90649425000000 1.26594024062500 3.53488738125000 
 N -4.11619925000000 4.87275724062500 3.41018538125000 
 N -4.62093825000000 1.85154624062500 7.32706938125000 
 N -4.98174025000000 4.99644624062500 7.17672338125000 
 S -5.41510325000000 1.46316024062500 5.97126838125000 
 S -5.59991825000000 4.54702824062500 5.71702938125000 
 S -2.38330925000000 1.76110724062500 3.04148138125000 
 S -2.54549725000000 5.13677424062500 3.06224038125000 
 S -3.04681225000000 2.26696224062500 7.10873738125000 
 S -3.35772225000000 5.31541624062500 7.13628838125000 
