16

 C -3.07262176875000 1.23522708125000 5.41694327187500 
 C -3.02337776875000 5.19029208125000 5.51910727187500 
 C -4.18335776875000 0.637275081250000 4.70872327187500 
 C -4.30736576875000 4.95578608125000 4.94581627187500 
 N -2.13714676875000 1.68223308125000 4.63997827187500 
 N -2.03589176875000 5.28349008125000 4.66556527187500 
 N -4.06644076875000 0.609441081250000 3.40616627187500 
 N -4.22846776875000 4.74627508125000 3.59988727187500 
 N -4.98650776875000 0.886148081250000 7.21016627187500 
 N -4.54728276875000 5.03713308125000 7.47758527187500 
 S -5.56660476875000 0.445933081250001 5.67526127187500 
 S -5.51286376875000 4.98472808125000 6.18003927187500 
 S -2.55401176875000 1.26643008125000 3.06478827187500 
 S -2.62876276875000 4.99270508125000 3.13134627187500 
 S -3.38185976875000 1.43268608125000 7.14668827187500 
 S -3.02520876875000 5.37099008125000 7.22804827187500 
