16

 C -3.74506642500000 1.23670557500000 5.62161168750000 
 C -3.03534542500000 5.05889357500000 5.38273068750000 
 C -4.81750842500000 0.559841575000001 4.96778868750000 
 C -4.19950542500000 4.43126957500000 4.82171368750000 
 N -2.69296242500000 1.43387057500000 4.86550368750000 
 N -2.02594342500000 5.11749557500000 4.51930368750000 
 N -4.62703942500000 0.336338575000001 3.69997868750000 
 N -4.12689642500000 4.06003557500000 3.55731368750000 
 N -5.37420142500000 0.557139575000001 7.38005768750000 
 N -4.71092642500000 4.87759157500000 7.32133368750000 
 S -6.16216542500000 0.186516575000002 5.90950968750000 
 S -5.48499442500000 4.34320857500000 5.93496268750000 
 S -3.15215642500000 1.02533257500000 3.34004668750000 
 S -2.62687242500000 4.57002757500000 3.05733168750000 
 S -3.82706042500000 1.16528357500000 7.31147968750000 
 S -3.12242942500000 5.41782857500000 7.10664568750000 
