16

 C -3.28677427812500 1.48836243437500 5.19720971562500 
 C -3.08557127812500 5.11472643437500 5.40321671562500 
 C -4.49359027812500 1.01320543437500 4.52181571562500 
 C -4.27548627812500 4.63423843437500 4.73927171562500 
 N -2.15766727812500 1.52230043437500 4.47035771562500 
 N -2.00764227812500 5.11670443437500 4.62125971562500 
 N -4.25865527812500 0.619721434374999 3.27459971562500 
 N -4.06299027812500 4.03536143437500 3.55495471562500 
 N -5.11068927812500 1.03461243437500 7.01608871562500 
 N -4.86282427812500 4.91855843437500 7.27714971562500 
 S -5.82590127812500 0.568493434374999 5.59453771562500 
 S -5.64132727812500 4.46233643437500 5.89217871562500 
 S -2.64900827812500 0.860560434375000 2.99638371562500 
 S -2.40967127812500 4.22338043437500 3.26720271562500 
 S -3.58184727812500 1.71140943437500 6.92747371562500 
 S -3.30161927812500 5.49919943437500 7.13923771562500 
