16

 C -3.35693858125000 1.32884867500000 5.36883240000000 
 C -3.21299958125000 5.45827167500000 5.69162740000000 
 C -4.47945358125000 0.658617675000002 4.73982740000000 
 C -4.39995358125000 5.12706067500000 4.93389140000000 
 N -2.31903558125000 1.55042667500000 4.56492540000000 
 N -2.05096458125000 5.60582367500000 5.02980040000000 
 N -4.36099858125000 0.474690675000001 3.44345740000000 
 N -4.09892858125000 5.06797267500000 3.64515840000000 
 N -5.12921358125000 1.12648067500000 7.21675240000000 
 N -5.14289458125000 5.15124767500000 7.36981540000000 
 S -5.76977658125000 0.413811675000001 5.87723040000000 
 S -5.87858358125000 5.07826367500000 5.87352840000000 
 S -2.84540858125000 1.04639867500000 3.03863240000000 
 S -2.48068058125000 5.39914267500000 3.42579540000000 
 S -3.47851258125000 1.52128967500000 7.02619140000000 
 S -3.50433658125000 5.42084467500000 7.35272340000000 
