16

 C -3.43806479062500 1.52150701875000 5.53858157812500 
 C -3.05482579062500 5.12669801875000 5.41866857812500 
 C -4.41626279062500 0.675608018749999 4.95285957812500 
 C -4.24589979062500 4.75576401875000 4.68755357812500 
 N -2.44390679062500 1.83677001875000 4.67037657812500 
 N -1.94621779062500 5.17022901875000 4.70906857812500 
 N -4.14657179062500 0.240405018750000 3.70991957812500 
 N -3.98279179062500 4.47548001875000 3.41664257812500 
 N -5.25040379062500 0.853573018750000 7.34896057812500 
 N -4.87183779062500 5.00710801875000 7.23102657812500 
 S -5.82725279062500 0.270302018749999 5.83021157812500 
 S -5.65550579062500 4.98189701875000 5.78915957812500 
 S -2.75527379062500 0.961313018749999 3.30475657812500 
 S -2.31853779062500 4.72832401875000 3.22292357812500 
 S -3.87175579062500 1.76005001875000 7.22859457812500 
 S -3.29284279062500 5.47933201875000 7.04856557812500 
