16

 C -3.03066805625000 1.27809168125000 5.53779068750000 
 C -3.20958405625000 5.07395468125000 5.52698368750000 
 C -4.29314405625000 1.19438668125000 4.89401368750000 
 C -4.44025205625000 4.62728568125000 4.88971868750000 
 N -1.99561405625000 1.30971368125000 4.71042168750000 
 N -2.09683705625000 5.09657568125000 4.74766968750000 
 N -4.16653305625000 0.967230681250004 3.59723668750000 
 N -4.29205805625000 4.32109068125000 3.61086468750000 
 N -4.86607505625000 1.49100668125000 7.32482468750000 
 N -5.02918405625000 5.17886168125000 7.31832168750000 
 S -5.64617105625000 1.52496268125000 5.86357668750000 
 S -5.76850505625000 4.56514968125000 5.98459968750000 
 S -2.61014805625000 1.05150868125000 3.13266868750000 
 S -2.73987005625000 4.63605268125000 3.21071568750000 
 S -3.19788405625000 1.55091468125000 7.24125768750000 
 S -3.42194705625000 5.47002768125000 7.16881968750000 
