16

 C -3.54137765312500 1.77097985625000 5.34342727812500 
 C -3.25081965312500 4.99754485625000 5.70816927812500 
 C -4.63923765312500 1.18511085625000 4.61643627812500 
 C -4.49229565312500 4.84576985625000 5.00667327812500 
 N -2.48904565312500 2.04538985625000 4.62131627812500 
 N -2.21289965312500 5.20052485625000 4.86714927812500 
 N -4.34933165312500 0.915373856250000 3.36250027812500 
 N -4.36051065312500 4.66556585625000 3.67939027812500 
 N -5.40341965312500 1.38697385625000 7.07567027812500 
 N -4.94868865312500 5.02403085625000 7.61416127812500 
 S -5.91231065312500 0.775034856250000 5.65672027812500 
 S -5.78109965312500 4.74667685625000 6.15591227812500 
 S -2.77840165312500 1.56907885625000 3.07365527812500 
 S -2.79124765312500 4.87587285625000 3.35152727812500 
 S -3.83167665312500 1.90477085625000 7.08621627812500 
 S -3.28949065312500 5.25034285625000 7.40106927812500 
