16

 C -3.10698918750000 1.57404076562500 5.68573171875000 
 C -3.12657218750000 5.18234976562500 5.64181771875000 
 C -4.41269318750000 1.45944976562500 5.06062271875000 
 C -4.37384618750000 4.93588676562500 4.94990671875000 
 N -2.06831118750000 1.70324176562500 4.83892471875000 
 N -2.06987518750000 5.35952376562500 4.88486271875000 
 N -4.31739518750000 1.42111976562500 3.69826371875000 
 N -4.21668018750000 4.91179776562500 3.62700571875000 
 N -4.84501618750000 1.60554476562500 7.63809671875000 
 N -4.82300718750000 4.99189376562500 7.52823471875000 
 S -5.66370818750000 1.30027476562500 6.26372471875000 
 S -5.64934218750000 4.62787976562500 6.13302171875000 
 S -2.75364718750000 1.76232176562500 3.34746671875000 
 S -2.63289918750000 5.32418376562500 3.31420671875000 
 S -3.21732118750000 1.88281076562500 7.42103171875000 
 S -3.21630718750000 5.30627176562500 7.35749671875000 
