16

 C -3.08732471875000 1.27533875937500 5.68502867812500 
 C -2.99481171875000 4.90375575937500 5.43055467812500 
 C -4.32685771875000 0.903164759375000 4.99852367812500 
 C -4.18632971875000 4.37714475937500 4.90048467812500 
 N -2.06762571875000 1.33353675937500 4.83909867812500 
 N -1.94188371875000 4.94815575937500 4.60148467812500 
 N -4.22148171875000 0.719128759375000 3.68333667812500 
 N -4.05507371875000 3.90284875937500 3.64405267812500 
 N -4.78060171875000 1.23319675937500 7.54432967812500 
 N -4.73022071875000 5.01309875937500 7.41334467812500 
 S -5.61012171875000 0.838968759375000 6.22190567812500 
 S -5.49179171875000 4.30395275937500 6.09128567812500 
 S -2.59723271875000 0.922936759374999 3.29679067812500 
 S -2.50437471875000 4.31211275937500 3.15706267812500 
 S -3.12370171875000 1.56499675937500 7.41926267812500 
 S -3.12763771875000 5.33467975937500 7.06391767812500 
