16

 C -3.10218613750000 1.71437128125000 5.52789030000000 
 C -3.11534213750000 5.03268828125000 5.50815630000000 
 C -4.44936413750000 1.53486528125000 4.97731830000000 
 C -4.36152313750000 4.66353028125000 4.87918230000000 
 N -2.10699513750000 1.73712328125000 4.61693430000000 
 N -2.10327313750000 5.37330428125000 4.69404430000000 
 N -4.49126513750000 1.55505128125000 3.64671330000000 
 N -4.24222713750000 4.73992228125000 3.54305930000000 
 N -4.73797913750000 1.58761028125000 7.50357130000000 
 N -4.79668913750000 4.47601528125000 7.46695230000000 
 S -5.71167713750000 1.50123228125000 6.17279130000000 
 S -5.68685413750000 4.34245128125000 6.06274230000000 
 S -3.00383313750000 1.60589328125000 3.18742330000000 
 S -2.69922113750000 5.13523028125000 3.17780130000000 
 S -3.10408813750000 1.62280528125000 7.29779030000000 
 S -3.15005213750000 4.87203928125000 7.22947430000000 
