16

 C -3.13038516875000 1.36947631875000 5.53587766875000 
 C -3.46491816875000 5.09656531875000 5.55356166875000 
 C -4.34289916875000 0.968454318750001 4.85568866875000 
 C -4.65007516875000 4.54277731875000 4.92698566875000 
 N -2.08043216875000 1.74572331875000 4.75812366875000 
 N -2.51020516875000 5.33863531875000 4.66482166875000 
 N -4.24428116875000 0.922000318750001 3.51471166875000 
 N -4.57543116875000 4.26578231875000 3.63065766875000 
 N -5.03258416875000 1.20437331875000 7.32463266875000 
 N -5.14199316875000 4.90165531875000 7.40267166875000 
 S -5.72161516875000 0.714934318750001 5.87415766875000 
 S -5.91704816875000 4.17111831875000 6.06514466875000 
 S -2.72383216875000 1.44491331875000 3.23493066875000 
 S -3.10337116875000 4.89646631875000 3.16688766875000 
 S -3.43012216875000 1.62619731875000 7.21551566875000 
 S -3.55383316875000 5.30998131875000 7.23282266875000 
