16

 C -3.05443129375000 1.46588329375000 5.58108266875000 
 C -3.29454229375000 5.17378729375000 5.21091466875000 
 C -4.21239429375000 1.04237729375000 4.79952866875000 
 C -4.36985829375000 4.45021129375000 4.58655266875000 
 N -1.95846429375000 1.56688329375000 4.86505066875000 
 N -2.18339629375000 5.18892729375000 4.45037966875000 
 N -3.95284829375000 0.890846293749998 3.51970366875000 
 N -4.09517729375000 3.98489029375000 3.36938366875000 
 N -5.01816329375000 1.14215029375000 7.19413566875000 
 N -5.32435729375000 5.18714629375000 6.86519166875000 
 S -5.64209229375000 0.824933293749998 5.73326566875000 
 S -5.77151429375000 4.11497729375000 5.64542066875000 
 S -2.36293629375000 1.14754229375000 3.27968666875000 
 S -2.59390429375000 4.39505329375000 3.02757166875000 
 S -3.44933429375000 1.66481629375000 7.26434866875000 
 S -3.77527729375000 5.84417129375000 6.74643766875000 
