16

 C -3.27006955312500 1.12493359062500 5.47245513750000 
 C -2.79489355312500 5.08867459062500 5.48191213750000 
 C -4.53765155312500 0.665809590624999 4.95666313750000 
 C -3.96676055312500 4.83518659062500 4.67796113750000 
 N -2.31044655312500 1.19288059062500 4.57048913750000 
 N -1.73619755312500 5.34752859062500 4.73297513750000 
 N -4.56030155312500 0.470428590624999 3.63432813750000 
 N -3.82598755312500 4.85656559062500 3.35088813750000 
 N -4.77317155312500 1.38302859062500 7.41670413750000 
 N -4.76610755312500 5.09271059062500 7.19596613750000 
 S -5.71167955312500 0.613018590624999 6.23308613750000 
 S -5.40652855312500 4.64647359062500 5.70107413750000 
 S -3.00667255312500 0.849559590624999 3.11860513750000 
 S -2.18964355312500 5.15839259062500 3.14772413750000 
 S -3.11694555312500 1.31561059062500 7.19522613750000 
 S -3.11413355312500 5.12823759062500 7.16759213750000 
