16

 C -3.31179937187500 1.25692955937500 5.98262656875000 
 C -3.04141537187500 4.80751355937500 5.26091456875000 
 C -4.47490437187500 0.761742559374997 5.25204756875000 
 C -4.31005337187500 4.69326855937500 4.57740656875000 
 N -2.22680337187500 1.48992255937500 5.24787756875000 
 N -1.98277337187500 4.95587955937500 4.45375556875000 
 N -4.30158337187500 0.745026559374997 3.94150056875000 
 N -4.16193937187500 4.45885655937500 3.27767756875000 
 N -5.23862737187500 0.743342559374997 7.71123656875000 
 N -4.80173537187500 4.73452355937500 7.11508356875000 
 S -5.86172837187500 0.389033559374997 6.22452756875000 
 S -5.58433837187500 4.54372555937500 5.65704056875000 
 S -2.72639937187500 1.22396855937500 3.68126856875000 
 S -2.57062637187500 4.75090555937500 2.89335156875000 
 S -3.64743337187500 1.24244555937500 7.66107956875000 
 S -3.15917837187500 4.98555155937500 6.99021956875000 
