16

 C -2.92351938125000 1.27753984062500 5.33100472187500 
 C -2.90476438125000 5.13274984062500 5.63271572187500 
 C -4.10672138125000 0.665540840625001 4.63528472187500 
 C -4.12235138125000 4.55109284062500 5.14533072187500 
 N -1.96719138125000 1.59093084062500 4.46922372187500 
 N -2.01304438125000 5.35584984062500 4.67445672187500 
 N -4.00178738125000 0.659161840625001 3.30220972187500 
 N -4.15003838125000 4.30025684062500 3.84731472187500 
 N -4.72080338125000 0.678397840625000 7.17699272187500 
 N -4.36584938125000 4.89166884062500 7.72259472187500 
 S -5.45094238125000 0.268321840625000 5.69163772187500 
 S -5.32461938125000 4.49172184062500 6.44168972187500 
 S -2.46986238125000 1.24330984062500 2.94975972187500 
 S -2.64920538125000 4.83229184062500 3.26456972187500 
 S -3.17254638125000 1.32409384062500 7.04910772187500 
 S -2.81520338125000 5.27024584062500 7.31090072187500 
