16

 C -3.39775355000000 1.25382700312500 5.34295704687500 
 C -3.16547455000000 5.04150100312500 5.29442104687500 
 C -4.59135855000000 0.698095003124999 4.68788904687500 
 C -4.40289255000000 4.64664000312500 4.73340904687500 
 N -2.28772555000000 1.35160600312500 4.59845404687500 
 N -2.06751855000000 5.04677900312500 4.48381704687500 
 N -4.32029055000000 0.360897003124999 3.41434004687500 
 N -4.30783955000000 4.28984800312500 3.42272804687500 
 N -5.17744055000000 1.03687500312500 7.16201404687500 
 N -4.92751855000000 4.89542200312500 7.21716504687500 
 S -5.93407355000000 0.552179003125000 5.78082604687500 
 S -5.76948655000000 4.79635300312500 5.78664204687500 
 S -2.81258455000000 0.894483003125000 3.08654004687500 
 S -2.72239655000000 4.58128500312500 3.05225404687500 
 S -3.64539855000000 1.45453200312500 7.06709704687500 
 S -3.34027155000000 5.50937100312500 6.94922704687500 
