16

 C -3.26126920312500 1.10849930000000 5.51211314062500 
 C -2.82398420312500 5.09912930000000 5.45374514062500 
 C -4.54779820312500 0.742765299999999 5.01516614062500 
 C -4.05412620312500 4.94990830000000 4.74023014062500 
 N -2.35398320312500 1.26934730000000 4.55655514062500 
 N -1.71314620312500 5.30607430000000 4.73050914062500 
 N -4.56247420312500 0.494303300000000 3.70733614062500 
 N -3.81967120312500 4.84821930000000 3.45258114062500 
 N -4.78851220312500 1.36361430000000 7.43342814062500 
 N -4.78907920312500 5.06889630000000 7.12174414062500 
 S -5.72864720312500 0.610204299999999 6.24064214062500 
 S -5.45043320312500 4.62265730000000 5.68094814062500 
 S -3.03483020312500 0.881676300000000 3.12929514062500 
 S -2.24822820312500 5.14155130000000 3.15370914062500 
 S -3.12712920312500 1.26787530000000 7.21202214062500 
 S -3.10291920312500 5.08538730000000 7.18148814062500 
