16

 C -2.93960417187500 1.82864215312500 5.65282288125000 
 C -3.30047517187500 5.51144615312500 5.31230488125000 
 C -4.21927717187500 1.61676215312500 5.02770588125000 
 C -4.45667917187500 4.92356615312500 4.71513188125000 
 N -1.91028917187500 1.90171015312500 4.82259888125000 
 N -2.34261317187500 5.80644215312500 4.44726088125000 
 N -4.16400217187500 1.58376215312500 3.70926388125000 
 N -4.38070717187500 4.80436415312500 3.41909488125000 
 N -4.62377717187500 1.60268915312500 7.52707388125000 
 N -4.90202017187500 5.04730915312500 7.24878588125000 
 S -5.51218517187500 1.42045615312500 6.15121288125000 
 S -5.65671517187500 4.46510115312500 5.88034288125000 
 S -2.50235517187500 1.82957015312500 3.32223988125000 
 S -2.86247717187500 5.26058815312500 2.95926688125000 
 S -3.00290417187500 1.96175415312500 7.40933988125000 
 S -3.36695917187500 5.62019015312500 7.04475088125000 
