16

 C -3.48161950625000 1.27953678750000 5.80655165937500 
 C -3.28761850625000 5.15070478750000 5.35267965937500 
 C -4.57822650625000 0.821864787500001 4.94898265937500 
 C -4.51624050625000 4.68466178750000 4.78154665937500 
 N -2.36984550625000 1.64812978750000 5.18006565937500 
 N -2.30027350625000 5.43722878750000 4.50379865937500 
 N -4.23210950625000 0.707730787500001 3.65476765937500 
 N -4.37351950625000 4.42024078750000 3.48501065937500 
 N -5.48184050625000 0.909035787500001 7.38412465937500 
 N -4.91964550625000 4.84294478750000 7.34369665937500 
 S -6.06317950625000 0.580551787500001 5.82880465937500 
 S -5.81530850625000 4.43994478750000 6.00982565937500 
 S -2.64461150625000 1.15289278750000 3.62593765937500 
 S -2.86750750625000 4.85949178750000 3.02013865937500 
 S -3.92151950625000 1.51559678750000 7.43480865937500 
 S -3.32798350625000 5.32762078750000 7.05146865937500 
