16

 C -2.98694096875000 1.54913035000000 5.71425029687500 
 C -3.10605996875000 4.62559035000000 5.55274529687500 
 C -4.26935896875000 1.10788035000000 5.11332429687500 
 C -4.38532096875000 4.34438835000000 4.86398829687500 
 N -1.93389696875000 1.67606135000000 4.86650129687500 
 N -2.06430396875000 4.67687535000000 4.71538829687500 
 N -4.18533296875000 0.942079350000000 3.78867229687500 
 N -4.26231596875000 4.22406135000000 3.54099929687500 
 N -4.81278496875000 1.51044935000000 7.59352429687500 
 N -4.86536496875000 4.52739035000000 7.35620829687500 
 S -5.63580496875000 1.22391235000000 6.17494429687500 
 S -5.74197796875000 4.22139235000000 5.96394829687500 
 S -2.62236396875000 1.23175535000000 3.43037329687500 
 S -2.62958996875000 4.46032335000000 3.20252729687500 
 S -3.12318096875000 1.71499335000000 7.45404929687500 
 S -3.21630496875000 4.70696335000000 7.28779729687500 
