16

 C -3.16302398125000 1.41739464062500 5.55736972500000 
 C -3.13316498125000 4.96680464062500 5.19842672500000 
 C -4.36554498125000 0.941561640625001 5.02665072500000 
 C -4.27255498125000 4.27327464062500 4.67245472500000 
 N -2.19396498125000 1.45284664062500 4.66577772500000 
 N -2.18088398125000 5.19141264062500 4.32041172500000 
 N -4.38139398125000 0.770564640625001 3.71865672500000 
 N -4.17529798125000 3.86054864062500 3.41557772500000 
 N -4.84591398125000 1.32081164062500 7.47353172500000 
 N -4.91837498125000 4.95910964062500 6.99483672500000 
 S -5.73744798125000 0.865268640625001 6.06555972500000 
 S -5.65505298125000 4.17879764062500 5.75770872500000 
 S -2.84358198125000 1.02710464062500 3.21502372500000 
 S -2.70034898125000 4.44173964062500 2.93104772500000 
 S -3.21857798125000 1.86268164062500 7.24808372500000 
 S -3.39328398125000 5.56697964062500 6.77593872500000 
