16

 C -3.37975955625000 1.55718348750000 5.39387923750000 
 C -3.15548655625000 5.31804348750000 5.65746123750000 
 C -4.51008255625000 0.934967487500002 4.71208623750000 
 C -4.42006255625000 4.89699548750000 5.07446723750000 
 N -2.33746855625000 1.93208248750000 4.68455423750000 
 N -2.09893555625000 5.29910948750000 4.79517223750000 
 N -4.31798855625000 1.00292448750000 3.40050523750000 
 N -4.40969655625000 4.86664948750000 3.74249123750000 
 N -5.37305655625000 1.51667548750000 7.08610923750000 
 N -4.84976955625000 5.06725248750000 7.51555123750000 
 S -5.99594255625000 0.723583487500002 5.71442823750000 
 S -5.72856055625000 4.68133848750000 6.16567623750000 
 S -2.77557855625000 1.50103348750000 3.13604523750000 
 S -2.75735955625000 5.05975648750000 3.29395323750000 
 S -3.79557255625000 2.03612348750000 7.05670123750000 
 S -3.24942155625000 5.35800148750000 7.38877923750000 
