16

 C -3.05398548437500 1.83106740312500 5.76558927812500 
 C -3.08179048437500 5.32551740312500 5.68289127812500 
 C -4.33392348437500 1.64374340312500 5.14612927812500 
 C -4.34617748437500 4.99062940312500 5.04634427812500 
 N -2.03607948437500 2.00341440312500 4.92809927812500 
 N -2.10833548437500 5.51572240312500 4.80038227812500 
 N -4.27795948437500 1.58397340312500 3.82997427812500 
 N -4.31847548437500 4.94770940312500 3.73024327812500 
 N -4.81242948437500 1.39477340312500 7.63702627812500 
 N -4.81222148437500 5.01627640312500 7.54489827812500 
 S -5.66073348437500 1.39823540312500 6.21426327812500 
 S -5.63401748437500 4.76732740312500 6.11140927812500 
 S -2.71912148437500 1.62040740312500 3.47563627812500 
 S -2.77041648437500 5.18992340312500 3.26144827812500 
 S -3.15684648437500 1.83179640312500 7.50531427812500 
 S -3.16084848437500 5.31586940312500 7.47441627812500 
