16

 C -3.18019169687500 1.43954529375000 5.41202846250000 
 C -3.28105269687500 5.14639229375000 5.40052046250000 
 C -4.28618269687500 0.765271293750001 4.90759446250000 
 C -4.54159769687500 4.69992129375000 4.85639346250000 
 N -2.18259469687500 1.57499629375000 4.55175646250000 
 N -2.35046469687500 5.25235529375000 4.46003246250000 
 N -4.19389169687500 0.374808293750001 3.65222746250000 
 N -4.49630569687500 4.32138929375000 3.59129946250000 
 N -4.91548769687500 1.37681829375000 7.28109846250000 
 N -4.91529169687500 5.08778729375000 7.37351646250000 
 S -5.56024469687500 0.469012293750001 6.03090246250000 
 S -5.83487269687500 4.76235829375000 5.98661046250000 
 S -2.70676069687500 0.793430293750000 3.17957646250000 
 S -2.93452969687500 4.56881129375000 3.08196446250000 
 S -3.35421969687500 1.93492129375000 7.11172346250000 
 S -3.31669369687500 5.54755029375000 7.11291646250000 
