16

 C -3.21956280000000 1.10580391875000 5.58756674687500 
 C -3.30140480000000 5.19339391875000 5.65891374687500 
 C -4.47489680000000 0.807843918750000 4.90620474687500 
 C -4.35674680000000 4.46564991875000 4.97717774687500 
 N -2.09974880000000 1.09028591875000 4.84373674687500 
 N -2.32976380000000 5.58391791875000 4.85047074687500 
 N -4.29651180000000 0.698629918750000 3.58891074687500 
 N -4.21784180000000 4.35636191875000 3.65854974687500 
 N -4.96439480000000 0.630127918750000 7.46469974687500 
 N -4.96567980000000 4.56078991875000 7.56062774687500 
 S -5.81636880000000 0.590979918750000 6.05924374687500 
 S -5.60844180000000 4.02894991875000 6.07351274687500 
 S -2.67508980000000 0.939094918750000 3.29507174687500 
 S -2.74376280000000 5.08041891875000 3.33153174687500 
 S -3.37277780000000 1.07773691875000 7.32131874687500 
 S -3.48655580000000 5.31998691875000 7.39857574687500 
