16

 C -3.21392435937500 0.979289537500000 5.42008968125000 
 C -3.18181635937500 4.70701753750000 5.60089568125000 
 C -4.55354435937500 0.737126537499999 4.80481468125000 
 C -4.44795535937500 4.53235153750000 4.97434468125000 
 N -2.18949335937500 1.11120453750000 4.56556668125000 
 N -2.15913135937500 4.87050453750000 4.69604168125000 
 N -4.54223835937500 0.768477537499999 3.47444768125000 
 N -4.50520635937500 4.53706753750000 3.63658868125000 
 N -4.91148435937500 0.486474537499999 7.30817768125000 
 N -4.93342735937500 4.69823053750000 7.50071168125000 
 S -5.76331035937500 0.250234537499999 5.91717768125000 
 S -5.76339235937500 4.56712253750000 6.10186668125000 
 S -2.92242335937500 1.06441453750000 3.08159068125000 
 S -2.86194635937500 4.75287053750000 3.22126068125000 
 S -3.28865435937500 0.842913537499999 7.16536468125000 
 S -3.31049735937500 4.69364753750000 7.35358468125000 
