16

 C -3.16666911250000 1.43384783125000 5.43675029375000 
 C -2.99542611250000 5.09185283125000 5.50521429375000 
 C -4.45914511250000 1.39721483125000 4.84044029375000 
 C -4.27103111250000 4.88744683125000 4.88189929375000 
 N -2.15782111250000 1.62285283125000 4.61394229375000 
 N -1.99296511250000 5.38644483125000 4.67952229375000 
 N -4.39007611250000 1.45059383125000 3.54104629375000 
 N -4.25280111250000 5.03903983125000 3.54618429375000 
 N -4.86817311250000 1.44502383125000 7.32329029375000 
 N -4.71857211250000 4.79244183125000 7.43611629375000 
 S -5.77898811250000 1.33399283125000 5.89799029375000 
 S -5.58383911250000 4.49936983125000 6.02754529375000 
 S -2.73111611250000 1.65006883125000 3.10115829375000 
 S -2.63428611250000 5.28332083125000 3.12527229375000 
 S -3.21489611250000 1.63516283125000 7.12047629375000 
 S -3.10778611250000 5.04194083125000 7.21032829375000 
