16

 C -3.19563021562500 1.10012008750000 5.56739821250000 
 C -3.28908621562500 5.18999808750000 5.68935821250000 
 C -4.42841221562500 0.870085087499997 4.89349421250000 
 C -4.31246121562500 4.44331208750000 5.05430121250000 
 N -2.11303021562500 1.14768208750000 4.77647921250000 
 N -2.30039021562500 5.54075308750000 4.85849621250000 
 N -4.33688621562500 0.731927087499997 3.56031121250000 
 N -4.19984721562500 4.37226708750000 3.71956821250000 
 N -5.01122021562500 0.538687087499997 7.44093921250000 
 N -4.92413521562500 4.45446908750000 7.58613721250000 
 S -5.81236921562500 0.572528087499998 6.02136721250000 
 S -5.64704121562500 4.10619908750000 6.11809521250000 
 S -2.72878121562500 0.924202087499998 3.23828121250000 
 S -2.74071621562500 5.04875208750000 3.33757821250000 
 S -3.43275921562500 1.02927808750000 7.28458721250000 
 S -3.50644921562500 5.32043608750000 7.38005421250000 
