16

 C -3.30253982812500 1.39377694375000 5.46546310000000 
 C -3.12400682812500 5.41254094375000 5.76722210000000 
 C -4.40517082812500 0.813081943749999 4.73562510000000 
 C -4.30075282812500 5.01904994375000 5.04358010000000 
 N -2.23134482812500 1.64431294375000 4.70879210000000 
 N -2.04953782812500 5.50375294375000 4.98903410000000 
 N -4.26479282812500 0.725041943749999 3.42353110000000 
 N -4.16115982812500 5.03980494375000 3.71598810000000 
 N -5.20735282812500 1.14027894375000 7.17497610000000 
 N -5.03995882812500 5.23090294375000 7.42713210000000 
 S -5.70585182812500 0.399968943749999 5.79230910000000 
 S -5.76104682812500 5.06490094375000 5.96611110000000 
 S -2.73911482812500 1.30594294375000 3.09487310000000 
 S -2.54582482812500 5.27322594375000 3.38579410000000 
 S -3.52202182812500 1.47048994375000 7.20292710000000 
 S -3.42403282812500 5.55664694375000 7.55344310000000 
