16

 C -3.11290834375000 1.27499422812500 5.51023070312500 
 C -3.27351434375000 5.04801422812500 5.48528470312500 
 C -4.38494334375000 1.06730122812500 4.85567370312500 
 C -4.50218134375000 4.66644722812500 4.83106370312500 
 N -2.04877034375000 1.24587122812500 4.69322770312500 
 N -2.21162034375000 4.96485822812500 4.65573970312500 
 N -4.31986934375000 0.869868228125000 3.52844970312500 
 N -4.37752634375000 4.41618522812500 3.53649170312500 
 N -4.99402034375000 1.39865522812500 7.36630270312500 
 N -5.01279734375000 5.11888622812500 7.32551370312500 
 S -5.72925834375000 1.48185122812500 5.89805770312500 
 S -5.82274934375000 4.46834122812500 5.99727870312500 
 S -2.64579234375000 0.978787228124999 3.20700770312500 
 S -2.71026134375000 4.52370222812500 3.19094470312500 
 S -3.31281934375000 1.43953622812500 7.30080070312500 
 S -3.41621634375000 5.57413822812500 7.11369070312500 
