16

 C -3.10866361250000 1.13896327187500 5.78958700937500 
 C -3.14295661250000 4.96887627187500 5.61218200937500 
 C -4.44600461250000 0.844819271875001 5.18789800937500 
 C -4.40414261250000 4.64026727187500 4.96510500937500 
 N -2.09616661250000 1.20567327187500 4.92785000937500 
 N -2.18518861250000 5.20768827187500 4.69561200937500 
 N -4.34718661250000 0.589251271875001 3.89216200937500 
 N -4.35081161250000 4.45029127187500 3.62679800937500 
 N -4.82610361250000 1.50417927187500 7.66579900937500 
 N -4.89824161250000 5.02775627187500 7.51881100937500 
 S -5.74792761250000 1.15743227187500 6.28612200937500 
 S -5.71006061250000 4.53908427187500 6.12374000937500 
 S -2.77424861250000 0.808856271875000 3.44520100937500 
 S -2.81306861250000 5.01788227187500 3.20950000937500 
 S -3.17046661250000 1.67540327187500 7.37506600937500 
 S -3.26912661250000 5.47589727187500 7.23749100937500 
