16

 C -2.94370226875000 1.53854032187500 5.33840308750000 
 C -3.26335126875000 5.31375832187500 5.89794408750000 
 C -4.16065726875000 1.05286932187500 4.71877008750000 
 C -4.45014326875000 4.87219432187500 5.15975008750000 
 N -1.90712526875000 1.53038732187500 4.48821308750000 
 N -2.20491126875000 5.49038832187500 5.18387808750000 
 N -4.08039426875000 0.756695321874997 3.41300508750000 
 N -4.22397526875000 4.71769232187500 3.87138408750000 
 N -4.84241926875000 1.31322332187500 7.12119708750000 
 N -5.06677526875000 5.08192632187500 7.70120108750000 
 S -5.49279726875000 0.689744321874996 5.73358908750000 
 S -5.79812826875000 4.76415832187500 6.26754908750000 
 S -2.54611026875000 1.16482432187500 3.00275908750000 
 S -2.54635026875000 5.11519732187500 3.67242908750000 
 S -3.27056826875000 1.79214432187500 7.11034708750000 
 S -3.47102826875000 5.51185532187500 7.58243608750000 
