16

 C -3.08096090937500 1.21402633437500 5.70584483750000 
 C -2.86010490937500 4.69557533437500 5.47038283750000 
 C -4.46600890937500 1.02833833437500 5.33058483750000 
 C -4.14340990937500 4.58458033437500 4.82272083750000 
 N -2.11852690937500 0.938694334375005 4.85374983750000 
 N -1.87413290937500 4.80048133437500 4.61838183750000 
 N -4.57296090937500 0.576630334375005 4.07742483750000 
 N -4.11381890937500 4.54881833437500 3.51221883750000 
 N -4.59211790937500 1.73189333437500 7.71163083750000 
 N -4.68694690937500 4.56530333437501 7.35138283750000 
 S -5.63886890937500 1.29950133437500 6.52615783750000 
 S -5.45071790937500 4.51942733437501 5.92532283750000 
 S -2.97899690937500 0.626446334375005 3.44608583750000 
 S -2.47453290937500 4.77961433437501 3.07418583750000 
 S -2.98734190937500 1.79057933437500 7.35301783750000 
 S -3.00682490937500 4.88299533437500 7.19662583750000 
