16

 C -3.28890377812500 0.916622378125003 5.39636434687500 
 C -3.21471277812500 4.98707337812500 5.59873934687500 
 C -4.55801077812500 0.698719378125003 4.74455534687500 
 C -4.47849177812500 4.57520037812500 4.95973834687500 
 N -2.21307177812500 1.11904637812500 4.60597434687500 
 N -2.27399877812500 5.21847537812500 4.73510234687500 
 N -4.51244277812500 0.789402378125002 3.40602334687500 
 N -4.38266577812500 4.36415537812500 3.65098334687500 
 N -5.01185277812500 0.605676378125002 7.33796234687500 
 N -5.00947377812500 4.59251237812500 7.44439134687500 
 S -5.86871377812500 0.387661378125003 5.90939734687500 
 S -5.86687977812500 4.43612237812500 5.99677934687500 
 S -2.82309477812500 0.976195378125002 3.09302934687500 
 S -2.81659977812500 4.89042537812500 3.22208034687500 
 S -3.35991877812500 0.800917378125003 7.14779734687500 
 S -3.32834377812500 4.81582237812500 7.33013634687500 
