16

 C -2.97947981875000 1.24907043124999 5.57615907500000 
 C -2.97563681875000 5.21731943124999 5.53186807500000 
 C -4.15689581875000 0.963274431249995 4.82872507500000 
 C -4.24061081875000 4.94364943125000 4.85190707500000 
 N -1.84895581875000 1.20280943125000 4.85767707500000 
 N -1.93171881875000 5.20789343125000 4.73267707500000 
 N -3.95825981875000 0.838719431249994 3.49918507500000 
 N -4.05950981875000 4.68652843125000 3.58051307500000 
 N -4.93151281875000 1.32862943124999 7.19427807500000 
 N -4.74834481875000 5.25713243125000 7.34494907500000 
 S -5.63059681875000 0.738543431249995 5.78637507500000 
 S -5.62222281875000 4.86445743124999 5.94407607500000 
 S -2.31001381875000 1.03183843125000 3.23230107500000 
 S -2.43925181875000 4.86795243125000 3.15234007500000 
 S -3.28317981875000 1.52184143125000 7.22800507500000 
 S -3.09929081875000 5.48166343124999 7.22681707500000 
