16

 C -3.22343151562500 1.10028972812500 5.59463160625000 
 C -3.30217151562500 5.18781872812500 5.65193160625000 
 C -4.47842251562500 0.802504728125001 4.91029260625000 
 C -4.36332051562500 4.47263072812500 4.97059760625000 
 N -2.10389951562500 1.08799572812500 4.85004960625000 
 N -2.32971551562500 5.58852772812500 4.84948660625000 
 N -4.29395051562500 0.696075728125001 3.59324360625000 
 N -4.21827951562500 4.35375772812500 3.65837160625000 
 N -4.95767451562500 0.640814728125001 7.46793560625000 
 N -4.96906851562500 4.57185872812500 7.55222260625000 
 S -5.81604451562500 0.591988728125001 6.05896060625000 
 S -5.60637551562500 4.02077072812500 6.07061360625000 
 S -2.66962351562500 0.940071728125001 3.29890560625000 
 S -2.74440151562500 5.08319872812500 3.33040260625000 
 S -3.36589051562500 1.08222572812500 7.32556360625000 
 S -3.48414551562500 5.31987772812500 7.40115860625000 
