16

 C -3.00583208437500 1.90475263750000 5.42262054375000 
 C -3.66326908437500 5.23315163750000 5.52082654375000 
 C -4.03176708437500 1.15542363750000 4.81601154375000 
 C -4.71154808437500 4.50601763750000 4.89387454375000 
 N -1.95192208437500 2.19664663750000 4.62418154375000 
 N -2.64123708437500 5.54648163750000 4.74626654375000 
 N -3.85524208437500 0.928930637500000 3.51009454375000 
 N -4.47022308437500 4.23333563750000 3.61176154375000 
 N -4.63526108437500 1.01537463750000 7.25189454375000 
 N -5.26406808437500 4.74101163750000 7.40527754375000 
 S -5.27005608437500 0.478065637500000 5.80721954375000 
 S -5.86207508437500 3.95227563750000 6.01869454375000 
 S -2.36319508437500 1.47213463750000 3.15908154375000 
 S -3.04855808437500 4.99061063750000 3.23248754375000 
 S -3.19708608437500 1.86068263750000 7.15382654375000 
 S -3.76654108437500 5.44357563750000 7.24740554375000 
