16

 C -2.99559002812500 1.53323896250000 5.34798563125000 
 C -3.25726602812500 5.39239396250000 5.88757363125000 
 C -4.18480502812500 1.04593196250000 4.68915463125000 
 C -4.41310902812500 4.89706596250000 5.18059963125000 
 N -1.94288402812500 1.57114496250000 4.53258463125000 
 N -2.11429102812500 5.55600896250000 5.14587063125000 
 N -4.10705302812500 0.715126962500002 3.42051363125000 
 N -4.20050002812500 4.67940096250000 3.85238163125000 
 N -4.85815302812500 1.36182096250000 7.13063163125000 
 N -5.09475802812500 5.11984396250000 7.69937263125000 
 S -5.50322102812500 0.710847962500003 5.76809663125000 
 S -5.82607702812500 4.70935196250000 6.20308863125000 
 S -2.49646102812500 1.10287596250000 3.00618463125000 
 S -2.58325002812500 5.07150996250000 3.59272363125000 
 S -3.25510002812500 1.82077096250000 7.06165963125000 
 S -3.46390902812500 5.49911496250000 7.60179463125000 
