16

 C -3.33406868125000 1.01471327187500 5.66037794375000 
 C -2.91447968125000 5.10014827187500 5.58439894375000 
 C -4.50825168125000 0.652052271875003 4.90966094375000 
 C -4.12800168125000 4.67931627187500 4.90338594375000 
 N -2.27586768125000 1.13876227187500 4.88902694375000 
 N -1.91874768125000 5.17759327187500 4.70510994375000 
 N -4.38010268125000 0.371275271875003 3.63687194375000 
 N -4.07471068125000 4.36609427187500 3.61622894375000 
 N -5.20175568125000 0.890092271875003 7.28933794375000 
 N -4.71387668125000 4.79409627187500 7.36886494375000 
 S -5.86647868125000 0.257355271875003 5.88873294375000 
 S -5.42665368125000 4.29737627187500 5.96390494375000 
 S -2.83690168125000 0.890016271875003 3.35318994375000 
 S -2.47044168125000 4.76409127187500 3.20231894375000 
 S -3.60620868125000 1.25583227187500 7.31164194375000 
 S -3.15002168125000 5.36703427187500 7.29249594375000 
