16

 C -3.16413279687500 1.56440353437500 5.42991906562500 
 C -2.99586479687500 5.08754853437500 5.55793306562500 
 C -4.46889379687500 1.47560153437500 4.79745306562500 
 C -4.25199579687500 4.88013553437500 4.89696706562500 
 N -2.10871479687500 1.53568153437500 4.60979006562500 
 N -2.02437979687500 5.24299153437500 4.65098306562500 
 N -4.40597179687500 1.56143353437500 3.45402006562500 
 N -4.27192479687500 4.94587053437500 3.55213106562500 
 N -4.85104179687500 1.52036653437500 7.44610106562500 
 N -4.74182679687500 4.58202953437500 7.38425706562500 
 S -5.75389379687500 1.40486353437500 6.07314306562500 
 S -5.52440879687500 4.37637453437500 5.95749606562500 
 S -2.83770879687500 1.69716253437500 3.10143906562500 
 S -2.75055679687500 5.28602653437500 3.16457706562500 
 S -3.23077379687500 1.67672953437500 7.22391306562500 
 S -3.11904479687500 5.01138053437500 7.31777906562500 
