16

 C -3.25168152812500 1.65781421562500 5.44225374375000 
 C -3.01213552812500 5.27106721562500 5.81641174375000 
 C -4.32238452812500 0.955129215625004 4.79516274375000 
 C -4.28290652812500 4.86515521562500 5.27366874375000 
 N -2.28486752812500 1.97824521562500 4.63749274375000 
 N -2.06150752812500 5.59246821562500 4.93512974375000 
 N -4.13274352812500 0.765466215625003 3.51017374375000 
 N -4.21463252812500 4.73753921562500 3.91072274375000 
 N -4.99584052812500 0.979196215625005 7.30619474375000 
 N -4.60013652812500 5.07704621562500 7.74394474375000 
 S -5.60318752812500 0.338144215625004 5.85058074375000 
 S -5.56463152812500 4.66378321562500 6.50101174375000 
 S -2.71055552812500 1.46458721562500 3.10496474375000 
 S -2.69995552812500 5.18007621562500 3.44329274375000 
 S -3.40638652812500 1.62543421562500 7.17300074375000 
 S -3.01402352812500 5.44289321562500 7.54679374375000 
