16

 C -2.81165720625000 1.32801093750000 5.74516060312500 
 C -3.08431620625000 4.80349993750000 5.42302460312500 
 C -4.02985420625000 0.711564937499999 5.17341160312500 
 C -4.35458220625000 4.35775793750000 4.89140160312500 
 N -1.79431320625000 1.42963493750000 4.90072960312500 
 N -2.03824420625000 4.83002193750000 4.63309060312500 
 N -3.81056120625000 0.251696937499999 3.93838360312500 
 N -4.23842020625000 4.17800693750000 3.58767460312500 
 N -4.61427720625000 1.55241193750000 7.56116160312500 
 N -4.85509520625000 5.03342493750000 7.38374060312500 
 S -5.43811320625000 0.868154937500000 6.29578560312500 
 S -5.67777520625000 4.67290393750000 6.00925260312500 
 S -2.30470220625000 0.808184937500000 3.39777860312500 
 S -2.67073720625000 4.48281193750000 3.10365160312500 
 S -3.03195920625000 1.91351993750000 7.39884560312500 
 S -3.21939920625000 5.31752593750000 7.05807460312500 
