16

 C -3.17184967500000 1.54983368437500 5.42872664687500 
 C -3.08833667500000 5.29143268437500 5.75647064687500 
 C -4.32788967500000 0.965025684375002 4.77317364687500 
 C -4.32977367500000 4.89099368437500 5.16846364687500 
 N -2.24692967500000 1.96120068437500 4.55718864687500 
 N -2.07906367500000 5.48605268437500 4.92415864687500 
 N -4.29295667500000 0.829613684375001 3.46406364687500 
 N -4.26217567500000 4.85203868437500 3.86437264687500 
 N -4.94579367500000 0.892642684375001 7.22454364687500 
 N -4.57338767500000 4.99899668437500 7.88324964687500 
 S -5.50242967500000 0.317127684375001 5.77714464687500 
 S -5.50590967500000 4.73578868437500 6.48852864687500 
 S -2.74006967500000 1.38794368437500 3.03349764687500 
 S -2.65269567500000 5.19000168437500 3.42176364687500 
 S -3.44616267500000 1.61117068437500 7.22473364687500 
 S -3.02365267500000 5.45099568437500 7.41200164687500 
