16

 C -3.08612594687500 1.96377863437500 5.77689426562500 
 C -3.13157394687500 5.42040663437500 5.62835926562500 
 C -4.31837194687500 1.61677763437500 5.16183326562500 
 C -4.40186994687500 5.02577863437500 5.05664626562500 
 N -2.04211394687500 1.96355163437500 4.95960326562500 
 N -2.11056594687500 5.50144363437500 4.79304226562500 
 N -4.20813794687500 1.41716763437500 3.84892726562500 
 N -4.29527294687500 4.79587463437500 3.75182826562500 
 N -4.74335794687500 1.39247663437500 7.66127926562500 
 N -4.80936794687500 5.09774663437500 7.63722326562500 
 S -5.60959794687500 1.48511563437500 6.25783626562500 
 S -5.65496294687500 4.83442863437500 6.22709426562500 
 S -2.59349094687500 1.72958963437500 3.41379626562500 
 S -2.75988494687500 5.14438563437500 3.31282526562500 
 S -3.12779194687500 1.74336663437500 7.53013726562500 
 S -3.18370694687500 5.34312063437500 7.37250426562500 
