16

 C -2.82942347812500 1.38341848750000 5.80620287812500 
 C -3.27275947812500 5.13207848750000 5.66373987812500 
 C -4.12037947812500 1.32007948750000 5.14223387812500 
 C -4.54160847812500 4.87382948750000 4.97068987812500 
 N -1.77358247812500 1.39433748750000 4.98057287812500 
 N -2.25025147812500 5.22018448750000 4.83775687812500 
 N -4.08519547812500 1.27449648750000 3.79362687812500 
 N -4.50514047812500 4.78711148750000 3.64543687812500 
 N -4.58055447812500 1.39148548750000 7.67664387812500 
 N -5.09708947812500 4.88657748750000 7.46746387812500 
 S -5.45110247812500 1.27059648750000 6.29985787812500 
 S -5.85595247812500 4.66821748750000 6.01860987812500 
 S -2.48716947812500 1.33979448750000 3.47131587812500 
 S -2.88313347812500 4.93515248750000 3.32675887812500 
 S -2.94786247812500 1.54176948750000 7.53297787812500 
 S -3.44122847812500 5.12805248750000 7.39650887812500 
