16

 C -3.22226337812500 1.67429521562500 5.44496971875000 
 C -3.03305137812500 4.89219121562500 5.57262071875000 
 C -4.43743737812500 1.36339321562500 4.66949671875000 
 C -4.27804737812500 4.62873721562500 4.86860771875000 
 N -2.18556437812500 1.88015421562500 4.67063971875000 
 N -2.04396737812500 5.11772021562500 4.75567171875000 
 N -4.26118037812500 1.21254321562500 3.35990171875000 
 N -4.17182337812500 4.44781321562500 3.56218171875000 
 N -4.89525637812500 1.09926321562500 7.19474071875000 
 N -4.88403437812500 4.77440621562500 7.34917471875000 
 S -5.73296037812500 0.924733215624999 5.72823571875000 
 S -5.63448737812500 4.59522421562500 5.91713071875000 
 S -2.71347537812500 1.65192521562500 3.04136071875000 
 S -2.59614037812500 4.86449921562500 3.21215071875000 
 S -3.35611637812500 1.69536121562500 7.17699871875000 
 S -3.24919937812500 5.18803721562500 7.24658271875000 
