16

 C -3.29371321250001 0.916490446874996 5.39140291875000 
 C -3.20792921250001 4.96358644687500 5.61243891875000 
 C -4.57932921250001 0.704422446874996 4.73772291875000 
 C -4.46526121250001 4.57775544687500 4.97757791875000 
 N -2.23432721250001 1.12178144687500 4.60577491875000 
 N -2.26401121250001 5.19687244687500 4.73831691875000 
 N -4.50403621250001 0.807865446874996 3.40929991875000 
 N -4.38625621250001 4.36805844687500 3.67602591875000 
 N -5.00032221250001 0.597391446874996 7.35098191875000 
 N -5.01753621250001 4.61040444687500 7.45086991875000 
 S -5.85336521250001 0.371318446874996 5.91192191875000 
 S -5.85153621250001 4.44940744687500 5.99567191875000 
 S -2.82363421250001 0.977055446874996 3.09208991875000 
 S -2.82997121250001 4.87552244687500 3.21126391875000 
 S -3.34859721250001 0.802050446874996 7.14478891875000 
 S -3.32128321250001 4.78886444687500 7.33603991875000 
