16

 C -3.13812779062500 1.16935055937500 5.72497479062500 
 C -3.13000279062500 5.02191455937500 5.57184379062500 
 C -4.43683879062500 0.832202559375002 5.18432879062500 
 C -4.37160979062500 4.63113155937500 4.99623879062500 
 N -2.08350779062500 1.19279755937500 4.91822079062500 
 N -2.15192979062500 5.25913255937500 4.71512579062500 
 N -4.36708879062500 0.587950559375002 3.87073479062500 
 N -4.31638879062500 4.46806855937500 3.66780379062500 
 N -4.86394679062500 1.52425855937500 7.70494279062500 
 N -4.91819079062500 5.03574855937500 7.47584279062500 
 S -5.79584279062500 1.17332955937500 6.28548379062500 
 S -5.68903779062500 4.55385155937500 6.12907379062500 
 S -2.79758679062500 0.849961559375002 3.38998479062500 
 S -2.82625979062500 5.05419655937500 3.19973079062500 
 S -3.20083079062500 1.63783355937500 7.41954179062500 
 S -3.32833279062500 5.46185455937500 7.23516079062500 
