16

 C -3.79375450000000 1.15929898750000 5.68408987812500 
 C -3.15192450000000 4.96614098750000 5.33977587812500 
 C -4.87733450000000 0.690773987500005 4.90256387812500 
 C -4.40615950000000 4.50859798750000 4.76647787812500 
 N -2.67451350000000 1.43316198750000 5.00840787812500 
 N -2.16079850000000 5.02852698750000 4.48223787812500 
 N -4.59903850000000 0.522550987500004 3.58966787812500 
 N -4.29605250000000 4.16141498750000 3.47982487812500 
 N -5.61276450000000 0.670723987500004 7.36446187812500 
 N -4.72590150000000 5.04239798750000 7.29973287812500 
 S -6.26238650000000 0.210910987500005 5.88918087812500 
 S -5.54366350000000 4.25874498750000 6.05261087812500 
 S -3.11194650000000 1.20172598750000 3.46157587812500 
 S -2.72471550000000 4.58737398750000 3.03829787812500 
 S -4.02389050000000 1.26795598750000 7.36621787812500 
 S -3.17676050000000 5.50257598750000 6.95862887812500 
