16

 C -3.43219993125000 1.29157142500000 5.46012010312500 
 C -3.27523493125000 5.14322442500000 5.87122010312500 
 C -4.59859093125000 0.855163425000000 4.71599710312500 
 C -4.46318793125000 4.73450842500000 5.16519410312500 
 N -2.42495393125000 1.58118742500000 4.67770810312500 
 N -2.28442093125000 5.33462642500000 5.02024810312500 
 N -4.49813493125000 0.891129424999999 3.43273410312500 
 N -4.42937493125000 4.77755042500000 3.82048410312500 
 N -5.25790593125000 0.985725424999999 7.19611410312500 
 N -4.96362593125000 4.77133042500000 7.68375110312500 
 S -5.86843893125000 0.393126424999999 5.74691510312500 
 S -5.72933093125000 4.35699642500000 6.26900010312500 
 S -2.91466393125000 1.26653842500000 3.11132410312500 
 S -2.89614593125000 5.15119542500000 3.47295610312500 
 S -3.59114593125000 1.31151542500000 7.17811310312500 
 S -3.39490593125000 5.25708342500000 7.61852710312500 
