16

 C -3.24619349062500 1.43096118437500 5.55774604687500 
 C -2.98868749062500 5.22486418437500 5.44287504687500 
 C -4.39448649062500 0.740875184375001 5.04940304687500 
 C -4.25296949062500 4.91863618437500 4.84367504687500 
 N -2.24161949062500 1.53352318437500 4.66469004687500 
 N -1.95802649062500 5.39653418437500 4.62058404687500 
 N -4.32685049062500 0.451812184375000 3.76767004687500 
 N -4.13395549062500 4.87706618437500 3.48853304687500 
 N -4.99869249062500 1.28144418437500 7.39721104687500 
 N -4.67526849062500 5.13231918437500 7.38432304687500 
 S -5.62380449062500 0.378320184375000 6.15905104687500 
 S -5.51416949062500 4.65346018437500 6.01670404687500 
 S -2.89626049062500 1.04589518437500 3.21714004687500 
 S -2.53100149062500 5.17617218437500 3.06421804687500 
 S -3.51827349062500 1.84904718437500 7.24121104687500 
 S -2.98647549062500 5.40545518437500 7.12454804687500 
