16

 C -3.60577290000000 1.39085907812500 5.78901251875000 
 C -3.31814990000000 5.20120707812500 5.30906651875000 
 C -4.65786090000000 0.838212078125002 5.00844451875000 
 C -4.51080390000000 4.56219307812500 4.76852451875000 
 N -2.43487590000000 1.53443907812500 5.18897451875000 
 N -2.29312190000000 5.29369907812500 4.47796551875000 
 N -4.31270890000000 0.658696078125002 3.74655251875000 
 N -4.40377390000000 4.25254807812500 3.48549751875000 
 N -5.53209990000000 0.831738078125002 7.28377351875000 
 N -4.81359990000000 4.84208707812500 7.34887851875000 
 S -6.14672990000000 0.522953078125002 5.77199351875000 
 S -5.72124990000000 4.44819307812500 5.97685851875000 
 S -2.72217890000000 1.17650107812500 3.59891251875000 
 S -2.83592290000000 4.80397907812500 3.02443851875000 
 S -3.99668890000000 1.42248107812500 7.46483051875000 
 S -3.26142890000000 5.38236907812500 7.06161151875000 
