16

 C -2.80732965312500 1.32439390625000 5.76108275625000 
 C -3.07872065312500 4.80071090625000 5.42840275625000 
 C -4.04766865312500 0.722089906249999 5.17599875625000 
 C -4.35887265312500 4.38067890625000 4.88793875625000 
 N -1.80939965312500 1.41958890625000 4.90333675625000 
 N -2.04411265312500 4.85230990625000 4.63719375625000 
 N -3.80811965312500 0.254626906249999 3.93643775625000 
 N -4.24488965312500 4.18527190625000 3.58753975625000 
 N -4.60505265312500 1.55442890625000 7.56258675625000 
 N -4.85251065312500 5.03006090625000 7.39745675625000 
 S -5.44248965312500 0.866495906249999 6.29327575625000 
 S -5.68329565312500 4.67172090625000 6.01308375625000 
 S -2.30216465312500 0.805126906249999 3.41143675625000 
 S -2.67510465312500 4.48157290625000 3.11495075625000 
 S -3.02079665312500 1.91829390625000 7.39524775625000 
 S -3.21178465312500 5.31173090625000 7.05779975625000 
