16

 C -3.00670863125000 1.40911756562500 5.51875055312500 
 C -3.21116663125000 5.03010456562500 5.40687955312500 
 C -4.18608463125000 0.910561565625000 4.76960055312500 
 C -4.44060863125000 4.51070756562500 4.91455555312500 
 N -1.96216063125000 1.64651156562500 4.75154455312500 
 N -2.21522263125000 5.16398056562500 4.55172255312500 
 N -3.99177963125000 0.670950565625000 3.47772755312500 
 N -4.40338363125000 4.28526256562500 3.60475955312500 
 N -5.00184963125000 1.35770456562500 7.18920955312500 
 N -4.90062463125000 5.21224556562500 7.32486555312500 
 S -5.65243563125000 0.889045565625000 5.70037655312500 
 S -5.72882863125000 4.47450556562500 6.07605055312500 
 S -2.42547363125000 1.05301456562500 3.20942655312500 
 S -2.85386363125000 4.63643256562500 3.08958255312500 
 S -3.39284863125000 1.87553456562500 7.16588855312500 
 S -3.31966563125000 5.54577256562500 7.00853555312500 
