16

 C -3.29183152812500 1.22569826875000 6.00395733750000 
 C -3.02916652812500 4.78346426875000 5.27505733750000 
 C -4.48897752812500 0.750445268749999 5.23782933750000 
 C -4.29697352812500 4.67365926875000 4.60166333750000 
 N -2.19385552812500 1.49570626875000 5.23253133750000 
 N -1.98186552812500 4.92825626875000 4.44430933750000 
 N -4.27662252812500 0.723411268749999 3.90510833750000 
 N -4.16441552812500 4.43930426875000 3.29449033750000 
 N -5.20451252812500 0.686295268749999 7.73260033750000 
 N -4.77292952812500 4.70438326875000 7.14127733750000 
 S -5.87057852812500 0.381015268749999 6.23933933750000 
 S -5.58260252812500 4.54597426875000 5.66871033750000 
 S -2.72316552812500 1.23862026875000 3.67909933750000 
 S -2.57666852812500 4.75759926875000 2.87800833750000 
 S -3.63757452812500 1.25862726875000 7.65743233750000 
 S -3.14341452812500 4.96787426875000 7.01434233750000 
