16

 C -3.04443770312500 1.43756740000000 5.65299163125000 
 C -2.90790070312500 5.22981140000000 5.43071363125000 
 C -4.31982670312500 1.07946340000000 5.08249763125000 
 C -4.14767370312500 4.84055140000000 4.83534863125000 
 N -2.08568270312500 1.54872340000000 4.77841163125000 
 N -1.93094770312500 5.47537840000000 4.54422763125000 
 N -4.28652070312500 0.998087400000001 3.76146663125000 
 N -4.08111170312500 4.80581040000000 3.50396663125000 
 N -4.75998570312500 1.43228040000000 7.59346463125000 
 N -4.62108070312500 4.93167740000000 7.29398363125000 
 S -5.57914970312500 0.875142400000001 6.28592663125000 
 S -5.47499570312500 4.57293240000000 5.94453263125000 
 S -2.75627570312500 1.35165840000000 3.28232763125000 
 S -2.51857870312500 5.18186440000000 3.01735263125000 
 S -3.13209870312500 1.70743640000000 7.35220863125000 
 S -3.04411670312500 5.45758040000000 7.17697763125000 
