16

 C -3.06067201250000 1.26826867187500 5.69629221875000 
 C -3.25147001250000 5.30851867187500 5.32568521875000 
 C -4.18097201250000 0.660345671875000 4.96817521875000 
 C -4.31267601250000 4.47709767187500 4.84586221875000 
 N -2.04302201250000 1.52346567187500 4.87545921875000 
 N -2.28240901250000 5.57463567187500 4.46342521875000 
 N -3.98272501250000 0.448292671875000 3.67732421875000 
 N -3.97224001250000 3.86744567187500 3.73685021875000 
 N -4.87974301250000 1.07610267187500 7.43921921875000 
 N -5.04892001250000 5.09570267187500 7.25212621875000 
 S -5.49716701250000 0.301446671875000 6.03771521875000 
 S -5.52611801250000 4.13952267187500 6.02094321875000 
 S -2.48053101250000 0.940123671875000 3.33187921875000 
 S -2.61146001250000 4.60021567187500 3.15338721875000 
 S -3.30532101250000 1.63106167187500 7.42972521875000 
 S -3.61914101250000 5.88207667187500 6.99455221875000 
