16

 C -3.16343076875000 1.61926773437500 5.56508113437500 
 C -3.19137576875000 5.01440273437500 5.52958613437500 
 C -4.50396776875000 1.44688273437500 5.03293113437500 
 C -4.39852776875000 4.63692373437500 4.85656613437500 
 N -2.19844476875000 1.76835373437500 4.67590513437500 
 N -2.16937276875000 5.27470473437500 4.70809313437500 
 N -4.48561976875000 1.32245373437500 3.69742513437500 
 N -4.28833676875000 4.51489573437500 3.53319013437500 
 N -4.69696376875000 1.61838073437500 7.65209813437500 
 N -4.87993576875000 4.58866373437500 7.38291313437500 
 S -5.68802376875000 1.48226373437500 6.32298613437500 
 S -5.68824476875000 4.48339173437500 5.96554513437500 
 S -2.91993376875000 1.58764273437500 3.15269613437500 
 S -2.76953776875000 5.02993773437500 3.18496913437500 
 S -3.05660376875000 1.64066373437500 7.31637513437500 
 S -3.21038576875000 4.83071773437500 7.25973713437500 
