16

 C -2.81770321250000 1.30513493437500 5.66674094062500 
 C -2.94582321250000 4.86424693437500 5.38286294062500 
 C -4.18410321250000 1.16930493437500 5.22411894062500 
 C -4.19172321250000 4.52631493437500 4.67550994062500 
 N -1.94470421250000 0.943273934375003 4.75012794062500 
 N -1.84380521250000 4.90817993437500 4.65531294062500 
 N -4.33418821250000 0.685843934375003 4.01131594062500 
 N -4.00522021250000 4.28778493437500 3.36059994062500 
 N -4.57137721250000 1.69285293437500 7.71248794062500 
 N -4.69537721250000 4.89774893437500 7.22494794062500 
 S -5.49261521250000 1.41404693437500 6.29794494062500 
 S -5.55476421250000 4.54108693437500 5.90220294062500 
 S -2.87559321250000 0.580059934375003 3.39787594062500 
 S -2.35708421250000 4.50733293437500 3.14998594062500 
 S -2.88267721250000 1.53205493437500 7.43019494062500 
 S -3.03214821250000 4.82348293437500 7.10032294062500 
