16

 C -3.07748010625000 1.07143378125000 5.45874116250000 
 C -3.17042410625000 4.82346778125000 5.46631716250000 
 C -4.26412110625000 0.680427781250003 4.75931416250000 
 C -4.45746410625000 4.67743078125000 4.84680416250000 
 N -2.06403910625000 1.29975478125000 4.63652916250000 
 N -2.07272110625000 4.82015378125000 4.67504416250000 
 N -4.17485410625000 0.581783781250003 3.45342716250000 
 N -4.35938510625000 4.38266578125000 3.54006216250000 
 N -4.90237310625000 0.601161781250003 7.28943316250000 
 N -4.83568110625000 5.06481978125000 7.42074016250000 
 S -5.58713510625000 0.303195781250003 5.79778716250000 
 S -5.71455710625000 4.97380578125000 6.03711216250000 
 S -2.61191610625000 0.946435781250003 3.06276916250000 
 S -2.75365510625000 4.50049178125000 3.19690216250000 
 S -3.28602910625000 1.08123478125000 7.21244916250000 
 S -3.17084510625000 4.89347778125000 7.14771416250000 
