16

 C -3.23517101875000 1.34571205625000 5.84234953437500 
 C -2.94811001875000 4.86472705625000 5.70655353437500 
 C -4.47749301875000 0.873960056250002 5.31203753437500 
 C -4.16135801875000 4.48323805625000 5.01729153437500 
 N -2.26447001875000 1.50932705625000 4.94468453437500 
 N -1.97770901875000 5.23249205625000 4.82544553437500 
 N -4.51237401875000 0.615427056250002 3.99711153437500 
 N -4.09093901875000 4.45402205625000 3.69570953437500 
 N -4.84726001875000 1.39565405625000 7.85480053437500 
 N -4.78436901875000 4.78759905625000 7.43123253437500 
 S -5.78222701875000 1.14421905625000 6.49196453437500 
 S -5.62452701875000 4.43621305625000 6.03084753437500 
 S -2.89739101875000 1.00876705625000 3.50061753437500 
 S -2.53953201875000 4.98597205625000 3.27925553437500 
 S -3.20113401875000 1.74670605625000 7.54856453437500 
 S -3.20322501875000 5.10404105625000 7.40824153437500 
