16

 C -3.16082107187500 1.38482645625000 5.35713406562500 
 C -3.40006507187500 5.24428145625000 5.30351306562500 
 C -4.45633907187500 0.995893456249998 4.84228806562500 
 C -4.58093807187500 4.62225945625000 4.80129106562500 
 N -2.15378607187500 1.52636545625000 4.49014106562500 
 N -2.46043607187500 5.58520345625000 4.38772106562500 
 N -4.43346407187500 0.761910456249998 3.49209906562500 
 N -4.56818307187500 4.31406745625000 3.51694006562500 
 N -4.59833807187500 1.23556445625000 7.35517406562500 
 N -4.83887907187500 4.61260245625000 7.43683506562500 
 S -5.61672207187500 0.924263456249998 6.10255106562500 
 S -5.70962207187500 4.22023145625000 6.04298606562500 
 S -2.74792007187500 0.914396456249998 3.06041306562500 
 S -3.07116207187500 4.93779745625000 2.94846706562500 
 S -3.03281407187500 1.55289945625000 7.06159006562500 
 S -3.32259407187500 5.24768545625000 7.12281206562500 
