16

 C -3.20602521562500 1.51902558125000 5.57200085625000 
 C -3.06820721562500 5.29932858125000 5.62410385625000 
 C -4.38762521562500 1.14347658125000 4.77405385625000 
 C -4.35546021562500 5.04165658125000 4.94848285625000 
 N -2.17640821562500 1.79971958125000 4.79334185625000 
 N -2.05873521562500 5.44866958125000 4.78575085625000 
 N -4.17092521562500 1.20334758125000 3.44587685625000 
 N -4.23180221562500 4.81522758125000 3.63555185625000 
 N -4.98777721562500 0.641867581250001 7.25761985625000 
 N -4.80255521562500 5.03372958125000 7.51099085625000 
 S -5.73210421562500 0.687056581250000 5.74396985625000 
 S -5.67698521562500 4.98712758125000 6.06175385625000 
 S -2.59743921562500 1.67686658125000 3.23925085625000 
 S -2.61427021562500 5.03224958125000 3.27805085625000 
 S -3.53609821562500 1.41099358125000 7.31699185625000 
 S -3.12719721562500 5.58132058125000 7.39531685625000 
