16

 C -2.92979052812500 2.05892577500000 5.39867467500000 
 C -2.99720152812500 5.16011477500000 5.43474267500000 
 C -4.07585452812500 1.45587777500000 4.81469867500000 
 C -4.24713152812500 4.89865077500000 4.73142867500000 
 N -1.92725352812500 2.30780877500000 4.58559767500000 
 N -1.89730852812500 5.18605677500000 4.69455767500000 
 N -3.90392952812500 1.26040477500000 3.51099767500000 
 N -4.12712952812500 4.88374677500000 3.40358267500000 
 N -4.62307752812500 1.84647577500000 7.32865567500000 
 N -4.97455252812500 4.98565877500000 7.19634967500000 
 S -5.42323352812500 1.46419177500000 5.96816467500000 
 S -5.59289252812500 4.54541877500000 5.71583967500000 
 S -2.38931852812500 1.74529377500000 3.04017667500000 
 S -2.54540752812500 5.10992677500000 3.07414467500000 
 S -3.04074952812500 2.27297477500000 7.10092367500000 
 S -3.36991352812500 5.31388677500000 7.14221467500000 
