16

 C -3.24404932187499 1.31276049687500 5.51121688125000 
 C -3.21921032187499 5.13548649687500 5.34287388125000 
 C -4.53535832187499 1.14845449687500 4.84259388125000 
 C -4.48315032187499 4.69154149687500 4.76893088125000 
 N -2.11432232187499 1.21856949687500 4.77046788125000 
 N -2.20125732187499 4.96958349687500 4.51434188125000 
 N -4.39766132187499 0.939026496875002 3.52570988125000 
 N -4.43485332187499 4.29997049687500 3.48111588125000 
 N -5.06364032187499 1.30039449687500 7.33148288125000 
 N -5.00541432187499 4.96866149687500 7.21781488125000 
 S -5.91752432187499 1.20992149687500 5.92223688125000 
 S -5.77142532187499 4.48305749687500 5.85115688125000 
 S -2.74452232187499 0.950997496875002 3.28632288125000 
 S -2.81025132187499 4.44363949687500 3.11906488125000 
 S -3.39630832187499 1.39358549687500 7.25065988125000 
 S -3.47276632187499 5.53314849687500 7.03043288125000 
