16

 C -3.11992251250000 1.18272613750000 5.75341972187500 
 C -2.81111451250000 4.65339113750000 5.49731772187500 
 C -4.45586351250000 0.918938137499999 5.27623172187500 
 C -4.07214951250000 4.50109013750000 4.84753472187500 
 N -2.14880651250000 0.922684137500000 4.85780872187500 
 N -1.83070351250000 4.79745813750000 4.58297172187500 
 N -4.50038351250000 0.581915137500000 3.99327972187500 
 N -4.07634351250000 4.47207013750000 3.51323672187500 
 N -4.53762251250000 1.74334213750000 7.80021272187500 
 N -4.62642851250000 4.61390713750000 7.29335472187500 
 S -5.64914351250000 1.36117413750000 6.54226072187500 
 S -5.45307851250000 4.57545413750000 5.88201172187500 
 S -2.92945051250000 0.619342137499999 3.45900872187500 
 S -2.52257151250000 4.77011713750000 3.02240972187500 
 S -2.92596951250000 1.75205813750000 7.28106872187500 
 S -3.04955651250000 4.86071913750000 7.23746472187500 
