16

 C -3.09983805312500 1.83994644062500 5.78977001562500 
 C -3.05155305312500 5.28671244062500 5.66059901562500 
 C -4.36917405312500 1.55235044062500 5.16657201562500 
 C -4.30084605312500 4.92664844062500 5.04562001562500 
 N -2.09055805312500 1.84283344062500 4.91220101562500 
 N -2.06057805312500 5.46819344062500 4.79760501562500 
 N -4.31613505312500 1.58091044062500 3.82402401562500 
 N -4.28089905312500 4.99811744062500 3.71077701562500 
 N -4.81044505312500 1.45847044062500 7.67934101562500 
 N -4.83821305312500 4.99418244062500 7.57297801562500 
 S -5.69290505312500 1.35025444062500 6.21996901562500 
 S -5.65753805312500 4.72448144062500 6.13331001562500 
 S -2.68898405312500 1.65919544062500 3.36308501562500 
 S -2.73239205312500 5.24032044062500 3.27544801562500 
 S -3.18723905312500 1.86606744062500 7.50261301562500 
 S -3.19990605312500 5.30668944062500 7.39424601562500 
