16

 C -3.31585597500000 1.78970218437500 5.66560763437500 
 C -2.97169797500000 5.14091318437500 5.48472963437500 
 C -4.51385697500000 1.33484818437500 5.01147463437500 
 C -4.22144397500000 4.82707218437500 4.84397663437500 
 N -2.28635297500000 1.86688218437500 4.79764563437500 
 N -1.97659197500000 5.26364218437500 4.66646563437500 
 N -4.35191897500000 0.976596184374997 3.74713363437500 
 N -4.11810397500000 4.74440718437500 3.53201063437500 
 N -5.09927697500000 1.30194418437500 7.49284863437500 
 N -4.65955797500000 4.99638518437500 7.42457963437500 
 S -5.86477197500000 1.12087918437500 6.01737963437500 
 S -5.52360297500000 4.72648718437500 6.04680063437500 
 S -2.84602397500000 1.41489918437500 3.26381863437500 
 S -2.53440697500000 5.05661918437500 3.10164363437500 
 S -3.48736997500000 1.88174818437500 7.40011163437500 
 S -2.98035697500000 5.27744818437500 7.19956363437500 
