16

 C -2.82622897500000 1.36984342500000 5.68430797187500 
 C -3.07885397500000 4.79216842500000 5.44359797187500 
 C -3.95102897500000 0.678438425000003 5.18766697187500 
 C -4.30013497500000 4.33228242500000 4.86824997187500 
 N -1.78307297500000 1.47020142500000 4.85778497187500 
 N -2.03623997500000 4.75229842500000 4.58689697187500 
 N -3.84187497500000 0.273858425000003 3.91792297187500 
 N -4.23540797500000 4.11445642500000 3.54097797187500 
 N -4.69511197500000 1.53540842500000 7.57128397187500 
 N -4.82219797500000 5.06183042500000 7.29742997187500 
 S -5.39044197500000 0.865221425000003 6.27421097187500 
 S -5.66910697500000 4.64903842500000 5.95598497187500 
 S -2.34582697500000 0.811465425000003 3.36391897187500 
 S -2.66343697500000 4.47297642500000 3.06853797187500 
 S -3.07560897500000 1.88087142500000 7.38691197187500 
 S -3.24421997500000 5.35641942500000 7.08730497187500 
