16

 C -3.16858875625000 0.908595531250000 5.43622068437500 
 C -3.24147775625000 4.57556453125000 5.58957768437500 
 C -4.43450075625000 0.622755531250000 4.84148068437500 
 C -4.53179675625000 4.61179453125000 4.94222868437500 
 N -2.24132075625000 1.18977453125000 4.54223368437500 
 N -2.18929675625000 4.56512053125000 4.74232768437500 
 N -4.43713775625000 0.735942531250000 3.53074168437500 
 N -4.42945875625000 4.64697553125000 3.61739768437500 
 N -4.88330075625000 0.428427531250000 7.36023568437500 
 N -4.87456275625000 4.68084553125000 7.53594668437500 
 S -5.73129675625000 0.231008531250000 5.91088768437500 
 S -5.84355275625000 4.60840253125000 6.14250468437500 
 S -2.96522175625000 1.13112353125000 3.02836068437500 
 S -2.83760475625000 4.68915553125000 3.18685768437500 
 S -3.28443675625000 0.885937531250000 7.16767168437500 
 S -3.18353175625000 4.75333353125000 7.28651668437500 
