16

 C -3.12180320937499 1.29730786875001 5.44640246250000 
 C -3.04534620937499 5.13763286875001 5.67326946250000 
 C -4.24903420937499 0.636959868750006 4.78711446250000 
 C -4.15854320937499 4.53700086875001 4.87131746250000 
 N -2.14203020937499 1.73943186875001 4.74350946250000 
 N -1.97356120937499 5.30264886875001 4.88836446250000 
 N -4.12213620937499 0.664383868750006 3.46337846250000 
 N -4.01991920937499 4.34897986875001 3.58146346250000 
 N -4.85517620937499 0.921255868750006 7.29606446250000 
 N -5.24461720937499 5.10451486875001 7.15675346250000 
 S -5.60220720937499 0.358336868750007 5.94612546250000 
 S -5.61090220937499 4.26921286875001 5.75655146250000 
 S -2.53879120937499 1.36024186875001 3.15180046250000 
 S -2.44974520937499 4.86135886875001 3.31230046250000 
 S -3.32363520937499 1.58433386875001 7.11139946250000 
 S -3.55490620937499 5.60636586875001 7.27352046250000 
