16

 C -3.28799333750000 1.38606059687500 5.40033290937500 
 C -3.33749033750000 5.12012059687500 5.45143190937500 
 C -4.48897133750000 1.00469659687500 4.78170090937500 
 C -4.47481133750000 4.49158759687500 4.84231190937500 
 N -2.24058933750000 1.66927159687500 4.61871090937500 
 N -2.35533733750000 5.36594359687500 4.58860090937500 
 N -4.38918333750000 0.814972596875000 3.44744290937500 
 N -4.45524933750000 4.43315559687500 3.51296390937500 
 N -4.95632233750000 1.24402059687500 7.29630690937500 
 N -5.02530133750000 4.63263259687500 7.28627190937500 
 S -5.76055633750000 0.730000596875000 5.92402390937500 
 S -5.75359233750000 4.06201259687500 5.92236990937500 
 S -2.79357833750000 1.24255059687500 3.11764990937500 
 S -2.92181633750000 4.90849959687500 3.07395190937500 
 S -3.30140833750000 1.54317759687500 7.14896490937500 
 S -3.39942333750000 5.08876759687500 7.15316590937500 
