16

 C -3.74121914687500 1.20762398125000 5.73895720312500 
 C -3.11417514687500 5.05719198125000 5.33520820312500 
 C -4.81279914687500 0.716612981249999 4.96086820312500 
 C -4.34133714687500 4.46286598125000 4.82690520312500 
 N -2.65659514687500 1.52647198125000 5.08175420312500 
 N -2.12631414687500 5.06352598125000 4.44815620312500 
 N -4.57110014687500 0.671530981249999 3.66659220312500 
 N -4.33155214687500 4.20753198125000 3.51018020312500 
 N -5.60293514687500 0.687611981249999 7.31664620312500 
 N -4.78778914687500 4.97111498125000 7.29494020312500 
 S -6.27035914687500 0.296187981249999 5.83671420312500 
 S -5.60466114687500 4.31220398125000 6.01936220312500 
 S -2.96335214687500 1.15352198125000 3.48802120312500 
 S -2.81799414687500 4.61355098125000 2.96864920312500 
 S -4.07542714687500 1.28668798125000 7.39322820312500 
 S -3.21770314687500 5.51523398125000 7.01356120312500 
