16

 C -3.16551118437500 1.50434007812500 5.50434465937500 
 C -3.58491718437500 4.86102507812500 5.03941365937500 
 C -4.29642718437500 0.798859078125000 5.00434765937500 
 C -4.74611518437500 4.27906407812500 4.42888065937500 
 N -2.18048818437500 1.80370307812500 4.64543865937500 
 N -2.60857018437500 5.21256107812500 4.22848065937500 
 N -4.07251218437500 0.388715078125000 3.76231265937500 
 N -4.54565918437500 3.98735707812500 3.15756565937500 
 N -4.88079318437500 1.36058807812500 7.43538965937500 
 N -5.43733818437500 4.64714407812500 6.89491365937500 
 S -5.51839018437500 0.458095078125001 6.18570165937500 
 S -6.02719318437500 3.80509707812500 5.52175765937500 
 S -2.63492118437500 1.10076307812500 3.18613765937500 
 S -3.06548018437500 4.58974807812500 2.70268065937500 
 S -3.37565718437500 1.98594707812500 7.10278765937500 
 S -3.83684018437500 5.24800807812500 6.70860465937500 
