16

 C -3.21752988125000 1.45571155625000 5.27987999687500 
 C -3.15998388125000 5.34170155625000 5.51590099687500 
 C -4.40769788125000 0.849432556249997 4.66088399687500 
 C -4.33947688125000 4.73326255625000 4.99564799687500 
 N -2.23622588125000 1.86130655625000 4.49419299687500 
 N -2.19522588125000 5.64246055625000 4.61170799687500 
 N -4.38318888125000 0.868802556249998 3.32997999687500 
 N -4.34156688125000 4.50519455625000 3.68113899687500 
 N -4.82375588125000 0.765952556249998 7.25450199687500 
 N -4.87042888125000 4.93781755625000 7.51175099687500 
 S -5.64363488125000 0.429765556249998 5.81672699687500 
 S -5.65801088125000 4.53428755625000 6.08517499687500 
 S -2.88377088125000 1.50036255625000 2.98397699687500 
 S -2.84950688125000 5.12405955625000 3.13388399687500 
 S -3.31578588125000 1.48279455625000 7.02437399687500 
 S -3.32546888125000 5.46269855625000 7.28933999687500 
