16

 C -3.13746517812500 1.03941735312500 5.50170308750000 
 C -3.10894417812500 5.50308135312500 5.58530308750000 
 C -4.43508117812500 0.856688353125003 4.84343308750000 
 C -4.24708517812500 4.94010635312500 4.84448608750000 
 N -2.09615817812500 1.06682435312500 4.72585208750000 
 N -2.08249317812500 5.80238935312500 4.82220608750000 
 N -4.34043417812500 0.711109353125003 3.52005508750000 
 N -4.00400617812500 4.66714935312500 3.56555408750000 
 N -4.94304617812500 1.18157835312500 7.35580408750000 
 N -4.93749517812500 5.13303935312500 7.41488908750000 
 S -5.71775117812500 0.725783353125003 5.97072608750000 
 S -5.49740917812500 4.44834935312500 5.93291908750000 
 S -2.78531117812500 1.07775635312500 3.19460808750000 
 S -2.42125817812500 5.29127835312500 3.28170508750000 
 S -3.29432017812500 1.44706935312500 7.20678208750000 
 S -3.51421417812500 5.99659135312500 7.20162708750000 
