16

 C -2.97282264375000 1.53927795937500 5.35922067812500 
 C -3.10275764375000 5.30764995937500 5.53401967812500 
 C -4.11590964375000 0.916781959375000 4.71458967812500 
 C -4.23802864375000 4.64132795937500 4.87606567812500 
 N -1.97235764375000 1.73216995937500 4.49493967812500 
 N -2.03553764375000 5.40455895937500 4.69621267812500 
 N -4.04526464375000 0.701776959375001 3.37566267812500 
 N -4.07573864375000 4.18380095937500 3.65535767812500 
 N -4.50907764375000 1.07524795937500 7.39150467812500 
 N -4.89001164375000 4.88632095937500 7.35450467812500 
 S -5.33064964375000 0.566188959375000 6.01954067812500 
 S -5.60394864375000 4.38079595937500 5.89004467812500 
 S -2.43115764375000 1.17467995937500 2.97519667812500 
 S -2.53560964375000 4.60642695937500 3.25641367812500 
 S -2.99064964375000 1.75178995937500 7.05968267812500 
 S -3.31605364375000 5.42534795937500 7.25243467812500 
