16

 C -3.06499398437500 1.36770022812500 5.49307756250000 
 C -3.34399598437500 5.30299422812500 5.17166056250000 
 C -4.29765598437500 0.817405228124999 4.85608456250000 
 C -4.36367898437500 4.41864622812500 4.62780256250000 
 N -2.05331998437500 1.64439622812500 4.65906056250000 
 N -2.34048298437500 5.50290922812500 4.33941356250000 
 N -4.14684998437500 0.553553228124999 3.52902156250000 
 N -4.10860898437500 3.90815822812500 3.43359256250000 
 N -4.78858498437500 1.20174522812500 7.38099056250000 
 N -5.16977298437500 4.94724922812500 6.97617856250000 
 S -5.59737798437500 0.656723228124998 5.97892356250000 
 S -5.76000298437500 4.10012022812500 5.66618756250000 
 S -2.59246698437500 1.12042422812500 3.20075456250000 
 S -2.63363498437500 4.66103222812500 2.90287956250000 
 S -3.21480298437500 1.75251722812500 7.13365556250000 
 S -3.75378198437500 5.74655822812500 6.82711056250000 
