16

 C -3.03753448437500 1.49949686250000 5.38991284687500 
 C -3.11327348437500 5.10229686250000 5.39442084687500 
 C -4.19662648437500 1.12810186250000 4.66367184687500 
 C -4.32082148437500 4.50914086250000 4.85531584687500 
 N -1.96633548437500 1.65734086250000 4.64741484687500 
 N -2.14570448437500 5.38326986250000 4.53383484687500 
 N -4.02279048437500 1.00082386250000 3.34840984687500 
 N -4.20042448437500 4.21273586250000 3.57289084687500 
 N -4.81023348437500 1.23044686250000 7.10671184687500 
 N -4.76749848437500 4.71947286250000 7.40548484687500 
 S -5.61129448437500 1.00978086250000 5.66376384687500 
 S -5.58225848437500 4.25810186250000 6.03068684687500 
 S -2.35870848437500 1.21087686250000 3.14024184687500 
 S -2.66141248437500 4.70062386250000 3.12954684687500 
 S -3.20955148437500 1.69856486250000 7.07160684687500 
 S -3.22887648437500 5.30497586250000 7.07730884687500 
