16

 C -3.10150594687500 1.44531775000000 5.66519445000000 
 C -3.35172194687500 4.86275475000000 5.57295245000000 
 C -4.30027394687500 1.13510375000000 4.90999945000000 
 C -4.48699194687500 4.46396175000000 4.84931245000000 
 N -2.01410894687500 1.47885575000000 4.86134345000000 
 N -2.25737394687500 5.04653075000000 4.90083545000000 
 N -4.07343794687500 0.914949750000001 3.59842345000000 
 N -4.25132294687500 4.40821875000000 3.53798645000000 
 N -5.05872094687500 1.21263675000000 7.36341345000000 
 N -5.30819994687500 4.83240375000000 7.17988145000000 
 S -5.77784194687500 0.878172750000000 5.94487345000000 
 S -5.91030194687500 4.12286375000000 5.83459145000000 
 S -2.53348894687500 1.28569675000000 3.30646545000000 
 S -2.67761894687500 4.77525275000000 3.32563545000000 
 S -3.44203094687500 1.58252475000000 7.35291245000000 
 S -3.60134194687500 5.05927275000000 7.25889545000000 
