16

 C -2.83892039687500 1.29787898437499 5.36588695000000 
 C -3.19618539687500 4.94424198437499 5.39210795000000 
 C -4.07960939687500 0.829065984374994 4.82365395000000 
 C -4.39185439687500 4.44682398437499 4.86968195000000 
 N -1.99396339687500 1.45656098437500 4.32862395000000 
 N -2.29582639687500 5.24313698437500 4.46840795000000 
 N -4.21110839687500 0.678398984374995 3.51120495000000 
 N -4.42328039687500 4.32371298437499 3.54489695000000 
 N -4.52471739687500 1.26346798437499 7.29473895000000 
 N -4.86240939687500 4.99663198437499 7.36655395000000 
 S -5.36632039687500 0.878163984374995 5.97151595000000 
 S -5.61269539687500 4.20722198437499 6.12285395000000 
 S -2.72546239687500 1.04154598437500 2.89392495000000 
 S -2.93600539687500 4.95031798437499 3.02231695000000 
 S -2.94537639687500 1.72066798437499 7.10697295000000 
 S -3.22051039687500 5.43313698437500 7.01413795000000 
