16

 C -3.02765305000000 0.977662706249999 5.78805976250000 
 C -3.22774505000000 5.12990270625000 5.57063176250000 
 C -4.23255005000000 0.590961706250000 5.12910976250000 
 C -4.33644005000000 4.41807070625000 4.95352476250000 
 N -1.97716905000000 1.13571970625000 4.97342476250000 
 N -2.22566205000000 5.51278270625000 4.76034476250000 
 N -4.19626805000000 0.584930706250000 3.80656976250000 
 N -4.26286305000000 4.41178270625000 3.62712676250000 
 N -4.92662505000000 1.01625470625000 7.57184576250000 
 N -5.07974205000000 4.77263170625000 7.40806676250000 
 S -5.64750405000000 0.569184706250000 6.15215676250000 
 S -5.57256005000000 3.90952870625000 6.04183676250000 
 S -2.63269005000000 0.925030706249999 3.42317776250000 
 S -2.78890905000000 5.07775770625000 3.24114676250000 
 S -3.31622105000000 1.20686470625000 7.48962676250000 
 S -3.50466505000000 5.25782170625000 7.28010376250000 
