16

 C -3.15729888125000 1.43187842812500 5.56987025625000 
 C -2.97428988125000 5.23404142812500 5.39964825625000 
 C -4.35043288125000 0.797742428125000 5.04165025625000 
 C -4.24687888125000 4.89469642812500 4.76610125625000 
 N -2.21414088125000 1.50155142812500 4.63004325625000 
 N -1.97326388125000 5.42121342812500 4.58082425625000 
 N -4.35287588125000 0.475897428124999 3.73209125625000 
 N -4.18540588125000 4.87412342812500 3.45034825625000 
 N -4.98833188125000 1.27317542812500 7.48842825625000 
 N -4.60997688125000 5.12275842812500 7.36826025625000 
 S -5.61202888125000 0.425881428125000 6.17223025625000 
 S -5.53184288125000 4.63879942812500 6.04421125625000 
 S -2.92208088125000 1.05116842812500 3.20561325625000 
 S -2.55468188125000 5.26123542812500 3.11131125625000 
 S -3.39206088125000 1.85505442812500 7.29032225625000 
 S -2.93312688125000 5.41757342812500 7.14043725625000 
