16

 C -3.25293879375001 1.08809399687500 5.23273832500000 
 C -3.16792079375001 5.03575199687500 5.57372132500000 
 C -4.54048679375001 0.829321996875001 4.65764432500000 
 C -4.44086179375001 4.62366799687500 5.05908032500000 
 N -2.24351979375001 1.12591799687500 4.39462432500000 
 N -2.28078179375001 5.21079599687500 4.65062032500000 
 N -4.51346579375001 0.702160996875002 3.31840932500000 
 N -4.50595179375000 4.58061399687500 3.75062232500000 
 N -4.79932679375001 1.57406399687500 7.14316332500000 
 N -4.94663479375001 4.89293399687500 7.50279432500000 
 S -5.70543479375001 0.879153996875002 5.92990832500000 
 S -5.71934179375001 4.44106999687500 6.15339832500000 
 S -2.85697879375001 0.860917996875002 2.88100332500000 
 S -3.01946279375001 4.97679199687500 3.10977532500000 
 S -3.19176079375001 1.68606099687500 6.78873632500000 
 S -3.24823179375001 5.24817499687500 7.39949432500000 
