16

 C -3.31557456562500 1.50092337500000 5.47557030625000 
 C -3.06596356562500 5.19574737500000 5.88039130625000 
 C -4.52729156562500 1.16542337500000 4.77473930625000 
 C -4.38347956562500 4.95344237500000 5.26860530625000 
 N -2.24322156562500 1.66569937500001 4.68550330625000 
 N -2.08938056562500 5.24111037500000 4.98209730625000 
 N -4.41773156562500 1.08737437500000 3.43654830625000 
 N -4.41637656562500 4.81810337500000 3.96753330625000 
 N -5.03901056562500 1.05952337500000 7.37322030625000 
 N -4.78673956562500 5.08588137500000 7.85606330625000 
 S -5.83619856562500 0.718339375000005 5.90124230625000 
 S -5.64701556562500 5.02333737500000 6.45415330625000 
 S -2.82185456562500 1.52652737500001 3.12383330625000 
 S -2.78894956562500 5.05785037500000 3.53197730625000 
 S -3.46949356562500 1.59302237500000 7.21199730625000 
 S -3.16419256562500 5.37690837500000 7.60972730625000 
