16

 C -3.27976600312500 1.45895641250000 5.50585644687500 
 C -3.23418700312500 5.00535541250000 5.17386744687500 
 C -4.49580000312500 1.01499041250000 4.95009444687500 
 C -4.25586700312500 4.13252341250000 4.64041944687500 
 N -2.24969300312500 1.52561541250000 4.63810844687500 
 N -2.24882700312500 5.18752141250000 4.29364944687500 
 N -4.46206100312500 0.754475412500003 3.63931144687500 
 N -4.18166600312500 3.89221441250000 3.33000244687500 
 N -4.97999300312500 1.46429441250000 7.45674744687500 
 N -5.01808100312500 4.86403041250000 7.06483444687500 
 S -5.77535600312500 0.898563412500003 6.16182644687500 
 S -5.63586300312500 4.04855441250000 5.73912944687500 
 S -2.91390000312500 1.07734041250000 3.16320444687500 
 S -2.77071500312500 4.64333141250000 2.81279044687500 
 S -3.43365000312500 1.74331241250000 7.23852344687500 
 S -3.54662000312500 5.58415441250000 6.81665744687500 
