16

 C -3.28611999375000 1.57648873125000 5.49374328437500 
 C -3.10475999375000 5.20444973125000 5.69506428437500 
 C -4.53706899375000 1.14033073125000 4.92051928437500 
 C -4.30390699375000 4.66299773125000 5.08134728437500 
 N -2.37901599375000 1.79332273125000 4.56913828437500 
 N -2.06608799375000 5.35188173125000 4.86223928437500 
 N -4.57287799375000 1.11125173125000 3.60723128437500 
 N -4.23742299375000 4.72592673125000 3.76705628437500 
 N -4.81997299375000 1.10539273125000 7.50902728437500 
 N -4.93465699375000 5.08349973125000 7.54859228437500 
 S -5.76327699375000 0.992569731250000 6.19797528437500 
 S -5.60103899375000 4.37007073125000 6.17348528437500 
 S -3.04835099375000 1.39643673125000 3.04762628437500 
 S -2.71054999375000 5.05891573125000 3.35586828437500 
 S -3.25453299375000 1.68848273125000 7.28740428437500 
 S -3.28236299375000 5.43459373125000 7.39841328437500 
