16

 C -3.28661199375000 1.45138728125000 5.31790636250000 
 C -3.28978899375000 5.33196528125000 5.51629136250000 
 C -4.43926499375000 0.864124281250001 4.72269736250000 
 C -4.43407699375000 4.72484728125000 4.93868936250000 
 N -2.35226699375000 1.81476328125000 4.44931236250000 
 N -2.38981299375000 5.74750028125000 4.64609836250000 
 N -4.34612099375000 0.686947281250000 3.41380336250000 
 N -4.33209899375000 4.49285428125000 3.63997536250000 
 N -4.88298999375000 1.02661428125000 7.28029836250000 
 N -4.94726299375000 4.91536028125000 7.40085236250000 
 S -5.67041999375000 0.454691281250000 5.94916836250000 
 S -5.73362599375000 4.46632828125000 5.98179836250000 
 S -2.85114299375000 1.43056228125000 2.94654936250000 
 S -2.91048099375000 5.26379328125000 3.15765436250000 
 S -3.34542799375000 1.57972528125000 7.08650736250000 
 S -3.32919199375000 5.40914528125000 7.25853036250000 
