16

 C -3.09638492812500 1.19960903437500 5.68855822812500 
 C -3.02907392812500 4.78016303437500 5.49626822812500 
 C -4.38318792812500 0.835796034375001 5.08903222812500 
 C -4.23550092812500 4.33710003437500 4.85672722812500 
 N -2.06514092812500 1.24296803437500 4.81174922812500 
 N -1.99530992812500 4.80022103437500 4.66260522812500 
 N -4.26537592812500 0.537107034375001 3.77981122812500 
 N -4.11259192812500 4.13022103437500 3.57370622812500 
 N -4.78978092812500 1.03408903437500 7.63541922812500 
 N -4.92137092812500 4.86912403437500 7.22191722812500 
 S -5.66717492812500 0.743639034375001 6.30994622812500 
 S -5.55908292812500 4.05908803437500 5.88377622812500 
 S -2.66276892812500 0.812736034375001 3.36881622812500 
 S -2.53326592812500 4.34163203437500 3.17599522812500 
 S -3.27163392812500 1.61695203437500 7.36990822812500 
 S -3.31949292812500 5.33983803437500 7.16620022812500 
