16

 C -3.16874264375000 0.901418396875000 5.43803094062500 
 C -3.24475564375000 4.57171039687500 5.58923494062500 
 C -4.43823764375000 0.613152396875000 4.84169994062500 
 C -4.52913964375000 4.61606439687500 4.94031294062500 
 N -2.24385864375000 1.19746539687500 4.54277194062500 
 N -2.18448264375000 4.55111839687500 4.74292694062500 
 N -4.43014264375000 0.734567396875000 3.53028694062500 
 N -4.42782864375000 4.65313039687500 3.61050994062500 
 N -4.88247364375000 0.426858396875000 7.35906994062500 
 N -4.87000664375000 4.67990639687500 7.53597394062500 
 S -5.72684664375000 0.231317396875000 5.91293994062500 
 S -5.84623164375000 4.61054039687500 6.14391094062500 
 S -2.96463564375000 1.13395439687500 3.02616194062500 
 S -2.83948164375000 4.68422239687500 3.18880994062500 
 S -3.28371064375000 0.888327396875000 7.16804494062500 
 S -3.17974064375000 4.75707539687500 7.28272094062500 
