16

 C -3.21172577187500 1.43265906875000 5.64726846875000 
 C -3.35339077187500 5.11720806875000 5.38899746875000 
 C -4.37808677187500 0.811312068749998 4.92406046875000 
 C -4.55381577187500 4.70409206875000 4.74835946875000 
 N -2.15238477187500 1.68037106875000 4.83514246875000 
 N -2.31268577187500 5.43169506875000 4.62574646875000 
 N -4.17545577187500 0.761487068749998 3.59290546875000 
 N -4.42247177187500 4.80343806875000 3.44084246875000 
 N -5.05664577187500 1.20153306875000 7.39390746875000 
 N -5.11485277187500 4.85054106875000 7.30738646875000 
 S -5.70586877187500 0.603261068749998 6.00585946875000 
 S -5.88948977187500 4.41798706875000 5.89274146875000 
 S -2.63162777187500 1.18853006875000 3.34226746875000 
 S -2.85315577187500 5.17785306875000 3.08792446875000 
 S -3.45991377187500 1.60113406875000 7.36511946875000 
 S -3.50215177187500 5.27305506875000 7.08488746875000 
