16

 C -3.15382924687500 1.23951147812500 5.22130403437500 
 C -3.29249824687500 5.00151847812500 5.43434803437500 
 C -4.45133324687500 0.891432478125000 4.67953103437500 
 C -4.56896624687500 4.63500747812500 4.88341103437500 
 N -2.19515224687500 1.15576947812500 4.25935403437500 
 N -2.27092124687500 5.21356747812500 4.62296103437500 
 N -4.50383824687500 0.646866478125001 3.35199003437500 
 N -4.52101024687500 4.51347647812500 3.55659003437500 
 N -4.90032924687500 1.32171447812500 7.15150303437500 
 N -4.81653824687500 4.89723247812500 7.51426703437500 
 S -5.79606024687500 0.807797478125001 5.80853303437500 
 S -5.77811324687500 4.49036247812500 6.18658103437500 
 S -2.98955324687500 0.792190478125002 2.82979703437500 
 S -2.96455224687500 4.90495147812500 3.15221803437500 
 S -3.25220424687500 1.59751047812500 6.92296803437500 
 S -3.24585924687500 5.24956047812500 7.14115603437500 
