16

 C -3.18898065937500 1.15310794375001 5.44557059062500 
 C -3.08059265937500 5.26365694375001 5.57626259062500 
 C -4.29905665937500 0.489846943750005 4.77961159062500 
 C -4.28825565937500 4.83818494375001 4.96256659062500 
 N -2.13937165937500 1.28511194375000 4.67403859062500 
 N -1.99998265937500 5.28846794375001 4.80165459062500 
 N -4.00502165937500 9.362994375000522E-002 3.54741059062500 
 N -4.15560865937500 4.53067094375001 3.64902559062500 
 N -5.02136965937500 1.22334894375001 7.17662159062500 
 N -4.91940765937500 5.21706294375001 7.38744259062500 
 S -5.73730565937500 0.623465943750006 5.79919659062500 
 S -5.62115465937500 4.73526394375001 6.02354359062500 
 S -2.42478365937500 0.485377943750006 3.25440959062500 
 S -2.62979265937500 4.88234694375001 3.26097559062500 
 S -3.41755865937500 1.60117194375001 7.05395259062500 
 S -3.33813165937500 5.61331494375001 7.26735059062500 
