16

 C -2.98983688125000 1.59068715000000 5.34618828750000 
 C -3.48814488125000 4.97625915000000 5.19380528750000 
 C -4.13609988125000 1.02460015000000 4.72925028750000 
 C -4.63152388125000 4.34225115000000 4.56487728750000 
 N -1.88410788125000 1.72817715000000 4.62303528750000 
 N -2.43287688125000 5.14309615000000 4.39851728750000 
 N -3.89945288125000 0.713495150000001 3.40121028750000 
 N -4.33477388125000 3.89445115000000 3.34316128750000 
 N -4.77065388125000 1.37070415000000 7.26641028750000 
 N -5.43607988125000 5.07627115000000 6.91782728750000 
 S -5.39362188125000 0.765323150000001 5.86927628750000 
 S -5.93256388125000 4.08964415000000 5.68725628750000 
 S -2.25255688125000 1.12025915000000 3.13878428750000 
 S -2.82477688125000 4.42732715000000 2.97649628750000 
 S -3.31201888125000 2.11480115000000 7.07057128750000 
 S -3.86480688125000 5.65663315000000 6.75107028750000 
