16

 C -2.99235790937500 1.30640657500000 5.62359790312500 
 C -3.08814890937500 5.07134757500000 5.54377190312500 
 C -4.19404790937500 0.778515575000000 4.97198190312500 
 C -4.22052190937500 4.42087657500000 4.94463190312500 
 N -1.92264190937500 1.34606957500000 4.82298790312500 
 N -2.06732390937500 5.30531157500000 4.71426190312500 
 N -4.06972090937500 0.339882575000000 3.70256790312500 
 N -4.02685690937500 3.97606957500000 3.68488890312500 
 N -4.84649190937500 1.24943457500000 7.44438590312500 
 N -4.84827590937500 4.86336857500000 7.47889490312500 
 S -5.56649590937500 0.678210575000000 6.04309890312500 
 S -5.60642990937500 4.37991657500000 6.05785790312500 
 S -2.51374390937500 0.717121575000000 3.36596390312500 
 S -2.44696190937500 4.53714857500000 3.28230490312500 
 S -3.24892090937500 1.61539157500000 7.32293990312500 
 S -3.26009690937500 5.35431957500000 7.28387690312500 
