16

 C -2.87500971250000 1.56950771562500 5.83497487812500 
 C -3.35848571250000 5.37475871562500 5.53425587812500 
 C -4.12713071250000 1.37038171562500 5.19798687812500 
 C -4.56462871250000 4.92520271562500 4.92089087812500 
 N -1.88618571250000 1.64373771562500 4.98502687812500 
 N -2.40807171250000 5.65148571562500 4.67825387812500 
 N -4.08759371250000 1.35310771562500 3.87656387812500 
 N -4.53655571250000 4.79595571562500 3.60205487812500 
 N -4.58942371250000 1.41699571562500 7.70087987812500 
 N -5.06165371250000 5.05958971562500 7.42980087812500 
 S -5.44804771250000 1.41621471562500 6.27793587812500 
 S -5.84631471250000 4.70268871562500 6.01269187812500 
 S -2.46698371250000 1.53219171562500 3.44092787812500 
 S -3.03560371250000 5.21357671562500 3.15221687812500 
 S -2.89774271250000 1.55470071562500 7.50398187812500 
 S -3.47653371250000 5.46922271562500 7.26861787812500 
