16

 C -3.11759572812500 1.36042387812500 5.47459159687500 
 C -3.19367372812500 4.94232887812500 5.59714159687500 
 C -4.36371572812500 0.886005878124999 4.87287359687500 
 C -4.41072972812500 4.60545887812500 4.88989859687500 
 N -2.17316872812500 1.68513687812500 4.57791759687500 
 N -2.22264372812500 5.39999187812500 4.82753059687500 
 N -4.25868372812500 0.675130878125000 3.57529159687500 
 N -4.25968172812500 4.50989887812500 3.58648859687500 
 N -4.79542572812500 1.11038387812500 7.45552559687500 
 N -4.91670372812500 4.83609787812500 7.40127159687500 
 S -5.65166072812500 0.884355878125000 6.07567059687500 
 S -5.69372072812500 4.39767987812500 6.04757959687500 
 S -2.65945172812500 1.04618587812500 3.08490259687500 
 S -2.74660272812500 5.13361587812500 3.22549759687500 
 S -3.20156072812500 1.62701187812500 7.26570659687500 
 S -3.33317772812500 5.07498887812500 7.32437759687500 
