16

 C -2.98500262500000 1.49927521562500 5.23856725937500 
 C -3.30556962500000 5.18084621562500 5.46366625937500 
 C -4.20455362500000 1.05941421562500 4.73526225937500 
 C -4.42797762500000 4.64784621562500 4.70427825937500 
 N -1.93262162500000 1.57053921562500 4.38748325937500 
 N -2.20869362500000 5.44032421562500 4.76746725937500 
 N -4.22460062500000 0.895501215624999 3.42118525937500 
 N -4.14426362500000 4.57424021562500 3.40032925937500 
 N -4.54392162500000 1.14171221562500 7.36925125937500 
 N -5.04843462500000 4.73959021562500 7.25050225937500 
 S -5.46352762500000 0.827333215624999 6.06127625937500 
 S -5.74283862500000 4.27276321562500 5.78836125937500 
 S -2.69835362500000 1.29880721562500 2.85876525937500 
 S -2.60707962500000 5.15460921562500 3.16409225937500 
 S -2.98738562500000 1.57954021562500 7.05262025937500 
 S -3.43786862500000 5.23279921562500 7.21657125937500 
