16

 C -2.93086953125000 1.47936350937500 5.27184657187500 
 C -3.08546653125000 5.05971750937500 5.47549057187500 
 C -4.15885353125000 1.11328250937500 4.72380257187500 
 C -4.28325653125000 4.57713550937500 4.80273357187500 
 N -1.91164353125000 1.60132050937500 4.42485657187500 
 N -2.09636753125000 5.32948350937500 4.64483157187500 
 N -4.12686153125000 0.908357509375004 3.39739557187500 
 N -4.17893753125000 4.42558650937500 3.49146657187500 
 N -4.68073853125000 1.18757850937500 7.22269957187500 
 N -4.91129953125000 4.72376150937500 7.33636957187500 
 S -5.51037653125000 1.01218250937500 5.80128257187500 
 S -5.54598653125000 4.16620350937500 5.87222057187500 
 S -2.56493053125000 1.33453750937500 2.89969057187500 
 S -2.62377453125000 4.92123650937500 3.09375357187500 
 S -3.09241153125000 1.62188650937500 7.07915457187500 
 S -3.31154453125000 5.27308250937500 7.25666357187500 
