16

 C -3.04130286250000 1.28715309687500 5.50725789687500 
 C -3.09649186250000 5.38344609687500 5.39960089687500 
 C -4.30884086250000 0.958091096875000 4.85736289687500 
 C -4.31035786250000 4.94559009687500 4.76899089687500 
 N -1.93075786250000 1.29992809687500 4.71462789687500 
 N -2.09902886250000 5.67222509687500 4.55778889687500 
 N -4.10531786250000 0.704879096875000 3.57379789687500 
 N -4.19066786250000 4.84061209687500 3.43545389687500 
 N -4.88928586250000 0.994490096874999 7.33898789687500 
 N -4.87679786250000 4.94203709687500 7.25625489687500 
 S -5.69587786250000 0.740197096875000 5.90564289687500 
 S -5.59240786250000 4.44474109687500 5.82856789687500 
 S -2.56820686250000 0.973659096875000 3.13455289687500 
 S -2.69891986250000 5.32686909687500 3.04493889687500 
 S -3.30178886250000 1.44876009687500 7.23937789687500 
 S -3.29319186250000 5.52522409687500 7.06736389687500 
