16

 C -3.21157027812500 0.889069271874999 5.51891040312500 
 C -3.23685127812500 4.87964627187500 5.69168140312500 
 C -4.40398327812500 0.612490271874999 4.72205340312500 
 C -4.49459127812500 4.46761027187500 5.06937540312500 
 N -2.22990227812500 1.34827727187500 4.76275240312500 
 N -2.21647527812500 4.94130027187500 4.82111940312500 
 N -4.27966727812500 0.819985271874999 3.42560840312500 
 N -4.43801927812500 4.37592827187500 3.74706440312500 
 N -5.08487827812500 0.565888271874999 7.16239640312500 
 N -4.96418527812500 4.92483227187500 7.57448740312500 
 S -5.76965327812500 0.176935271874999 5.63816940312500 
 S -5.79236227812500 4.30767427187500 6.22571640312500 
 S -2.70446827812500 1.34325727187500 3.16300840312500 
 S -2.87955727812500 4.72960027187500 3.31203140312500 
 S -3.43567527812500 0.789926271874999 7.23609540312500 
 S -3.25519527812500 4.98946327187500 7.42022540312500 
