16

 C -3.08582123437500 1.28724920625000 5.26852011875000 
 C -2.90041723437500 5.13765620625000 5.57998811875000 
 C -4.26738023437500 0.838829206250004 4.58704011875000 
 C -4.14368723437500 4.65544020625000 5.08783611875000 
 N -2.11486023437500 1.81084420625000 4.51877111875000 
 N -1.96767423437500 5.27375120625000 4.62029211875000 
 N -4.19992923437500 0.921836206250005 3.26742011875000 
 N -4.27595023437500 4.45385720625000 3.76775811875000 
 N -4.67313323437500 0.598821206250004 7.12924611875000 
 N -4.56144823437500 5.09002920625000 7.62725711875000 
 S -5.50831623437500 0.194737206250004 5.72237911875000 
 S -5.38064623437500 4.49611220625000 6.32455911875000 
 S -2.71152523437500 1.55952520625000 2.95255111875000 
 S -2.75667323437500 4.79916720625000 3.17834411875000 
 S -3.12292223437500 1.24913320625000 6.96253311875000 
 S -3.01085223437500 5.46494320625000 7.33489711875000 
