16

 C -3.11997011875000 1.47616558124999 5.59577875000000 
 C -3.32813011875000 5.09051958125000 5.30059975000000 
 C -4.23705611875000 0.964192581249995 4.90162275000000 
 C -4.44894211875000 4.40562658124999 4.67014275000000 
 N -2.01332811875000 1.63957758124999 4.84044275000000 
 N -2.24600011875000 5.20526258124999 4.55563675000000 
 N -4.06756211875000 0.797745581249995 3.59025275000000 
 N -4.18804811875000 3.96706358124999 3.43767875000000 
 N -5.07978811875000 1.21757058125000 7.32509775000000 
 N -5.29780211875000 5.33150958125000 6.92796575000000 
 S -5.72954511875000 1.01497758124999 5.80818775000000 
 S -5.95495411875000 4.53351558124999 5.56894575000000 
 S -2.40847011875000 1.17454258124999 3.29102075000000 
 S -2.55996311875000 4.46916858124999 3.11571175000000 
 S -3.48697711875000 1.70072558125000 7.32275875000000 
 S -3.58739611875000 5.51544558124999 6.89727075000000 
