16

 C -2.95843759687500 1.46856600937500 5.31667954375000 
 C -3.20080459687500 4.83799900937500 5.58075954375000 
 C -4.17715159687500 0.962184009375000 4.76112954375000 
 C -4.44297959687500 4.47340200937500 4.92619654375000 
 N -2.05967959687500 1.74967400937500 4.41976954375000 
 N -2.29136559687500 5.35521000937500 4.74081254375000 
 N -4.12964159687500 0.823578009375000 3.45731554375000 
 N -4.38529159687500 4.46164400937500 3.60296454375000 
 N -4.42539959687500 1.00487800937500 7.27956054375000 
 N -5.00658459687500 4.50463800937500 7.41798054375000 
 S -5.34841659687500 0.675700009375000 5.93307854375000 
 S -5.76512259687500 4.04228000937500 5.96827054375000 
 S -2.62717359687500 1.35256700937500 2.93822754375000 
 S -2.90868359687500 5.06787000937500 3.23919154375000 
 S -2.96400159687500 1.75531500937500 7.03409854375000 
 S -3.41859959687500 4.97310500937500 7.29231054375000 
