16

 C -3.37571096250000 1.47443845000000 5.53496105937501 
 C -3.31266096250000 5.08232345000000 5.35520805937501 
 C -4.56138896250000 1.07395445000000 4.91928505937501 
 C -4.52807696250000 4.66038045000000 4.69256805937501 
 N -2.30371596250000 1.59174645000000 4.73750405937501 
 N -2.34277896250000 5.38317345000000 4.47118005937501 
 N -4.39891196250000 0.878801449999999 3.59984305937501 
 N -4.41313596250000 4.35495245000000 3.38542305937501 
 N -5.12837196250000 1.17613745000000 7.40595005937501 
 N -5.00688796250000 4.64892145000000 7.27033805937501 
 S -5.87966696250000 0.733804450000000 5.98127605937501 
 S -5.76958996250000 4.18446145000000 5.83837705937501 
 S -2.78701796250000 1.17780445000000 3.19657505937501 
 S -2.89280996250000 4.86300045000000 2.98435205937501 
 S -3.50985096250000 1.45602445000000 7.25452205937501 
 S -3.45137696250000 5.21298545000000 7.06738905937501 
