16

 C -3.39049444062500 1.80785922500000 5.59995215312500 
 C -2.95009244062500 5.14802022500000 5.51901415312500 
 C -4.57074444062500 1.33091122500000 4.96338115312500 
 C -4.23387244062500 4.86653722500000 4.89571215312500 
 N -2.33063844062500 1.93902622500000 4.78643815312500 
 N -1.96571744062500 5.22762422500000 4.60813915312500 
 N -4.35735644062500 0.954586225000003 3.69998315312500 
 N -4.17595244062500 4.72265122500000 3.58256415312500 
 N -5.10974744062500 1.27695322500000 7.48894115312500 
 N -4.61284444062500 4.95546422500000 7.41392315312500 
 S -5.92281444062500 1.14928622500000 6.03504415312500 
 S -5.48183244062500 4.77822522500000 6.04438615312500 
 S -2.83354144062500 1.41899022500000 3.31413715312500 
 S -2.58397044062500 5.03967122500000 3.12833715312500 
 S -3.49950044062500 1.87345022500000 7.37466215312500 
 S -3.03104844062500 5.27420922500000 7.23937715312500 
