16

 C -3.17566120625000 1.51341044375000 5.39358881562500 
 C -3.15657320625000 5.28043744375000 6.03635781562500 
 C -4.31666520625000 0.957526443749999 4.67411781562500 
 C -4.35105620625000 5.03027244375000 5.36982681562500 
 N -2.13405620625000 1.78603144375000 4.64700781562500 
 N -2.08556320625000 5.35392544375000 5.20562581562500 
 N -4.04780120625000 0.776624443749999 3.39489881562500 
 N -4.28456520625000 4.85798844375000 4.02700681562500 
 N -4.85655120625000 1.06126244375000 7.25043181562500 
 N -4.98882020625000 5.14587844375000 7.80481381562500 
 S -5.62863420625000 0.657135443749999 5.83199781562500 
 S -5.70986420625000 4.88866444375000 6.35797081562500 
 S -2.56852020625000 1.45306844375000 3.05313181562500 
 S -2.75190720625000 5.06281544375000 3.63422081562500 
 S -3.22540420625000 1.48775844375000 7.08051981562500 
 S -3.41081720625000 5.43733944375000 7.77624381562500 
