16

 C -3.09834596875000 0.947123484375001 5.46310775937500 
 C -3.02819196875000 4.94932148437500 5.52348275937500 
 C -4.28158096875000 0.602716484375001 4.73495475937500 
 C -4.31900496875000 4.72430948437500 4.87101175937500 
 N -1.98110696875000 1.08569648437500 4.77094175937500 
 N -2.02262696875000 4.96564048437500 4.65865775937500 
 N -4.01828696875000 0.571026484375001 3.42002475937500 
 N -4.26955396875000 4.45004548437500 3.59664075937500 
 N -4.96041396875000 0.852242484375001 7.24354375937500 
 N -4.88902396875000 5.04665648437500 7.38144875937500 
 S -5.65394096875000 0.415180484375001 5.77171875937500 
 S -5.68937796875000 4.95798248437500 5.93819275937500 
 S -2.41795196875000 0.869857484375001 3.17303275937500 
 S -2.72814096875000 4.60994148437500 3.13168675937500 
 S -3.32527396875000 1.28590648437500 7.12112375937500 
 S -3.18307296875000 5.18913148437500 7.30248475937500 
