16

 C -3.05768883750000 1.45592107812500 5.45424485000000 
 C -3.32686183750000 5.35192407812500 5.48451285000000 
 C -4.22331483750000 0.909994078125000 4.88854285000000 
 C -4.46433583750000 4.81972707812500 4.76285685000000 
 N -2.05288383750000 1.65805907812500 4.60259985000000 
 N -2.28335283750000 5.52331707812500 4.65158985000000 
 N -4.22783983750000 0.800615078125000 3.56614385000000 
 N -4.30427183750000 4.67034307812500 3.45103285000000 
 N -4.75063183750000 1.22019707812500 7.36986685000000 
 N -5.13109383750000 4.69020007812500 7.20635985000000 
 S -5.55314583750000 0.676580078125000 6.03803885000000 
 S -5.85197383750000 4.43908307812500 5.73105885000000 
 S -2.72212183750000 1.24633307812500 3.13976785000000 
 S -2.79480283750000 5.18170407812500 3.09633285000000 
 S -3.15204683750000 1.61513007812500 7.17867885000000 
 S -3.52879683750000 5.23621307812500 7.22413385000000 
