16

 C -3.18973651562500 1.15530042500000 5.44395366250000 
 C -3.07804251562500 5.26760642500000 5.58031766250000 
 C -4.30390251562500 0.488030424999998 4.78137566250000 
 C -4.28082651562500 4.83953242500000 4.97157566250000 
 N -2.13973551562500 1.28640442500000 4.67563666250000 
 N -1.99560451562500 5.30001842500000 4.79872166250000 
 N -4.01140751562500 8.632842499999782E-002 3.54721666250000 
 N -4.15689051562500 4.52082742500000 3.64921666250000 
 N -5.02015351562500 1.22190742500000 7.18462666250000 
 N -4.92120951562500 5.21217842500000 7.38739466250000 
 S -5.73983351562500 0.625633424999998 5.80016566250000 
 S -5.62397351562500 4.73654542500000 6.02029066250000 
 S -2.42411851562500 0.484047424999998 3.25471766250000 
 S -2.63553651562500 4.88511342500000 3.26244266250000 
 S -3.41818651562500 1.60967642500000 7.04859366250000 
 S -3.33927251562500 5.61726442500000 7.27124166250000 
