16

 C -3.40102822812500 1.27023119687500 5.79270064062500 
 C -3.22907222812500 4.93747919687500 5.21891764062500 
 C -4.59402022812500 0.853572196875000 5.04738364062500 
 C -4.47374422812500 4.54173119687500 4.59187064062500 
 N -2.37637222812500 1.42755219687500 4.99329864062500 
 N -2.21948022812500 5.30038319687500 4.40290964062500 
 N -4.42511022812500 0.860944196875000 3.74279564062500 
 N -4.29677522812500 4.36666419687500 3.28084664062500 
 N -5.19974122812500 0.847457196875000 7.48092764062500 
 N -5.02350422812500 4.75596919687500 7.09768464062500 
 S -5.97570022812500 0.762155196875000 5.98073264062500 
 S -5.86310322812500 4.43747419687500 5.68234364062500 
 S -2.82698922812500 1.22633619687500 3.41808464062500 
 S -2.76459022812500 4.85828219687500 2.90380764062500 
 S -3.63584522812500 1.49659219687500 7.50366664062500 
 S -3.46288022812500 5.38114919687500 6.89754264062500 
