16

 C -2.82789264687500 1.30548019374999 5.70190068437500 
 C -2.93674464687500 4.88741719374999 5.39794568437500 
 C -4.15735064687500 1.19773419374999 5.21607968437500 
 C -4.16458464687500 4.53962019374999 4.66500568437500 
 N -1.92559464687500 0.969879193749994 4.75477568437500 
 N -1.84280664687500 4.89559119374999 4.64402468437500 
 N -4.35951564687500 0.711660193749993 4.00488068437500 
 N -4.01651464687500 4.30044719374999 3.37574168437500 
 N -4.57174664687500 1.65779319374999 7.68543068437500 
 N -4.74706064687500 4.89123319374999 7.23605868437500 
 S -5.49487364687500 1.41993219374999 6.29175068437500 
 S -5.56815364687500 4.52672019374999 5.89984868437500 
 S -2.83845864687500 0.580443193749994 3.38663668437500 
 S -2.34102164687500 4.48344319374999 3.14365668437500 
 S -2.88108664687500 1.53104319374999 7.42840268437500 
 S -3.03240264687500 4.84122519374999 7.09734768437500 
