16

 C -3.30214664062500 1.11567280937500 5.99129384375000 
 C -2.91245764062500 4.73836480937500 5.28411384375000 
 C -4.46296064062500 0.629633809375000 5.19985484375000 
 C -4.22340064062500 4.42570780937500 4.72320984375000 
 N -2.28136164062500 1.47089880937500 5.19057584375000 
 N -1.89623864062500 4.84672280937500 4.38008284375000 
 N -4.23649664062500 0.695712809375000 3.87103184375000 
 N -4.21369264062500 4.47852880937500 3.38950984375000 
 N -4.97825064062500 0.450394809375000 7.71108384375000 
 N -4.71503364062500 4.55707980937500 7.21324584375000 
 S -5.80748164062500 0.334213809375000 6.25126484375000 
 S -5.58068564062500 4.53504880937500 5.83131084375000 
 S -2.67399864062500 1.30184380937500 3.60508284375000 
 S -2.67766864062500 4.73372880937500 2.89298184375000 
 S -3.52450164062500 1.32174780937500 7.68688084375000 
 S -3.05500364062500 4.85910080937500 7.07385384375000 
