16

 C -3.21141954062500 1.33044438437500 5.67554742187500 
 C -3.12665054062500 5.31361838437500 5.51153242187500 
 C -4.50509554062500 1.17630938437500 4.97205842187500 
 C -4.32649854062500 4.81904138437500 4.80261442187500 
 N -2.17512754062500 1.37345538437500 4.83186842187500 
 N -2.08981554062500 5.51478638437500 4.70771242187500 
 N -4.40159754062500 1.27748838437500 3.63553742187500 
 N -4.16626254062500 4.74426938437500 3.49412442187500 
 N -5.03808754062500 0.933475384375000 7.54603842187500 
 N -4.86130254062500 4.91012338437500 7.28041042187500 
 S -5.78738354062500 1.03400238437500 6.06053942187500 
 S -5.69176254062500 4.59512038437500 5.86678042187500 
 S -2.76259254062500 1.40194038437500 3.32877442187500 
 S -2.58724054062500 5.11832538437500 3.15774942187500 
 S -3.40808254062500 1.37317438437500 7.41969942187500 
 S -3.33864954062500 5.57171338437500 7.29635142187500 
