16

 C -3.11772670937500 1.39138992812500 5.73847285000000 
 C -3.09059470937500 4.59152892812500 5.41860085000000 
 C -4.42071470937500 1.00469192812500 5.14406385000000 
 C -4.29455970937500 4.05430892812500 4.78833385000000 
 N -2.12780570937500 1.48251792812500 4.88604785000000 
 N -2.03473870937500 4.79993392812500 4.63504385000000 
 N -4.27449270937500 0.831835928125003 3.85020085000000 
 N -4.09567070937500 3.82642692812500 3.49030585000000 
 N -4.82705070937500 1.24788692812500 7.63704185000000 
 N -4.80362070937500 4.56135292812500 7.20406785000000 
 S -5.69796370937500 0.932869928125004 6.26310085000000 
 S -5.64873170937500 4.04949592812500 5.84765785000000 
 S -2.72180270937500 1.05341892812500 3.33789885000000 
 S -2.54377670937500 4.27762292812500 3.12674485000000 
 S -3.25572170937500 1.64437892812500 7.42017585000000 
 S -3.15141070937500 4.82571292812500 7.11711285000000 
