16

 C -3.00766400000000 1.54426598750000 5.74160658125000 
 C -3.07714600000000 4.64546498750000 5.53958558125000 
 C -4.30180900000000 1.11062898750000 5.10409458125000 
 C -4.34001600000000 4.31858098750000 4.85791058125000 
 N -1.98613800000000 1.69214098750000 4.89581758125000 
 N -2.01956000000000 4.69753298750000 4.70078758125000 
 N -4.17812300000000 0.934851987499998 3.79770458125000 
 N -4.24763800000000 4.14619598750000 3.53380558125000 
 N -4.80679900000000 1.50148398750000 7.57149558125000 
 N -4.86361100000000 4.51899698750000 7.35749758125000 
 S -5.65842700000000 1.21048198750000 6.18075058125000 
 S -5.72810100000000 4.20084898750000 5.95003758125000 
 S -2.62938500000000 1.22053498750000 3.41336558125000 
 S -2.63211900000000 4.42331298750000 3.16064558125000 
 S -3.12616300000000 1.72159598750000 7.44122658125000 
 S -3.22490500000000 4.67309998750000 7.29137058125000 
