16

 C -3.16741479062500 1.16157182187500 5.48308048750000 
 C -3.09235079062500 5.46590182187500 5.66506748750000 
 C -4.42538079062500 0.768727821875000 4.91359248750000 
 C -4.24208879062500 4.93127182187500 4.99983448750000 
 N -2.18368079062500 1.36231482187500 4.62165548750000 
 N -2.14430079062500 5.93005382187500 4.88610048750000 
 N -4.37240579062500 0.619585821875000 3.61111148750000 
 N -4.12785979062500 4.84600582187500 3.67493448750000 
 N -4.99491079062500 0.888293821875000 7.44221848750000 
 N -4.82260679062500 4.71820882187500 7.43316248750000 
 S -5.79388279062500 0.467392821875000 6.01779948750000 
 S -5.55566779062500 4.34466982187500 6.02349448750000 
 S -2.81039579062500 1.13383682187500 3.13343148750000 
 S -2.66961079062500 5.58843682187500 3.32573548750000 
 S -3.36750579062500 1.23283682187500 7.26354548750000 
 S -3.34923579062500 5.43643882187500 7.37338748750000 
