16

 C -3.04227149062500 1.30216245312500 5.73056771250000 
 C -3.16867149062500 5.00743845312500 5.44379971250000 
 C -4.12480449062500 0.584284453124999 5.11295071250000 
 C -4.36760249062500 4.52734645312500 4.84369071250000 
 N -2.03054749062500 1.44635245312500 4.87681171250000 
 N -2.14732449062500 5.12947145312500 4.60192271250000 
 N -3.95307649062500 0.256768453124999 3.85193071250000 
 N -4.24625649062500 4.21315045312500 3.56897271250000 
 N -4.80638649062500 0.859017453124999 7.51790371250000 
 N -4.93811249062500 4.98178545312500 7.30612271250000 
 S -5.47411849062500 0.315818453124999 6.12296371250000 
 S -5.67941449062500 4.27616045312500 5.97344371250000 
 S -2.44131149062500 0.816696453124999 3.38986171250000 
 S -2.68417049062500 4.55815245312500 3.13337071250000 
 S -3.26691049062500 1.54042145312500 7.46476671250000 
 S -3.23750649062500 5.15346645312500 7.22222071250000 
