16

 C -3.25339002187500 1.36988892812500 5.32406596875000 
 C -3.19545702187500 5.32480292812500 5.68519196875000 
 C -4.39748002187500 0.632588928124999 4.81710496875000 
 C -4.34653602187500 4.79469892812500 5.06696896875000 
 N -2.16008002187500 1.41413192812500 4.52683996875000 
 N -2.19556502187500 5.42769092812500 4.83899196875000 
 N -4.12914402187500 0.110822928125000 3.61187896875000 
 N -4.28233102187500 4.48824892812500 3.80551996875000 
 N -5.06938502187500 1.62569492812500 7.17791996875000 
 N -5.00993802187500 5.10527992812500 7.52880596875000 
 S -5.72196502187500 0.634490928125000 5.97624896875000 
 S -5.64216202187500 4.49619092812500 6.11035396875000 
 S -2.61077702187500 0.624990928124999 3.17636696875000 
 S -2.69832102187500 4.85131892812500 3.38060196875000 
 S -3.43392502187500 2.05704592812500 6.90647996875000 
 S -3.49088102187500 5.74381192812500 7.38889796875000 
