16

 C -2.83123809687500 1.71533332187500 5.30642329062500 
 C -3.32145909687500 5.10593132187500 5.60685329062500 
 C -4.05515709687500 1.10812932187500 4.79002629062500 
 C -4.48236109687500 4.60783532187500 4.89065729062500 
 N -1.93571009687500 1.98479232187500 4.35062129062500 
 N -2.29621209687500 5.31071332187500 4.78791429062500 
 N -3.90263809687500 0.829040321875000 3.48725529062500 
 N -4.36066709687500 4.54788932187500 3.54599329062500 
 N -4.25823009687500 1.07955232187500 7.35500429062500 
 N -5.03903209687500 4.48369032187500 7.46324329062500 
 S -5.13236509687500 0.569652321875001 6.03888129062500 
 S -5.74852709687500 3.99556532187500 6.01718929062500 
 S -2.41457409687500 1.37092432187500 2.88465629062500 
 S -2.82131609687500 5.05364632187500 3.21859029062500 
 S -2.79680209687500 1.72453432187500 7.01553529062500 
 S -3.47263209687500 4.92851632187500 7.35623029062500 
