16

 C -3.22893266562500 1.32294220312500 5.22490290312500 
 C -3.30369966562500 5.10938920312500 5.37686090312500 
 C -4.48000066562500 0.928340203125004 4.67178090312500 
 C -4.55483066562500 4.67398220312500 4.84711890312500 
 N -2.25340766562500 1.29495520312500 4.29351790312500 
 N -2.31134266562500 5.17821920312500 4.51156590312500 
 N -4.49697966562500 0.477550203125004 3.41236290312500 
 N -4.48816266562500 4.45902620312500 3.55165090312500 
 N -4.96916066562500 1.07328120312500 7.17919090312500 
 N -4.77664166562500 4.83111120312500 7.43135590312500 
 S -5.76909766562500 0.810004203125005 5.76953190312500 
 S -5.78800566562500 4.57559920312500 6.11577590312500 
 S -2.94829566562500 0.754031203125003 2.86650890312500 
 S -2.88836866562500 4.76502420312500 3.06199690312500 
 S -3.37241166562500 1.47472820312500 6.97095690312500 
 S -3.25583466562500 5.28687720312500 7.07598690312500 
