16

 C -3.04805276875000 1.83068063437500 5.77163824687500 
 C -3.07912176875000 5.32642763437500 5.68440424687500 
 C -4.33264576875000 1.65183063437500 5.14676524687500 
 C -4.34902276875000 5.00147063437500 5.04615624687500 
 N -2.03062876875000 2.01220063437500 4.93103724687500 
 N -2.11461976875000 5.51764963437500 4.80129924687500 
 N -4.27818876875000 1.57810863437500 3.82196124687500 
 N -4.32530276875000 4.93766963437500 3.73018124687500 
 N -4.80792576875000 1.39226163437500 7.63257924687500 
 N -4.81105076875000 5.01859863437500 7.54338824687500 
 S -5.65796776875000 1.40192363437500 6.21545924687500 
 S -5.63256976875000 4.77005063437500 6.11228824687500 
 S -2.71998476875000 1.62041763437500 3.48098124687500 
 S -2.76994876875000 5.18757863437500 3.26167424687500 
 S -3.15651076875000 1.82827663437500 7.50494624687500 
 S -3.15941276875000 5.31664663437500 7.47681124687500 
