16

 C -3.19587380000000 1.10860037812500 5.56367180312500 
 C -3.29467580000000 5.20052337812500 5.69414780312500 
 C -4.43092080000000 0.861059378125000 4.89264980312500 
 C -4.31317080000000 4.43963137812500 5.04500580312500 
 N -2.10415880000000 1.13409537812500 4.78890980312500 
 N -2.30995780000000 5.54625737812500 4.85650480312500 
 N -4.32889280000000 0.724775378125000 3.56086180312500 
 N -4.20369880000000 4.37276337812500 3.69952280312500 
 N -5.00820780000000 0.551129378125000 7.44356380312500 
 N -4.93268180000000 4.47018837812500 7.59002980312500 
 S -5.81375380000000 0.576686378125000 6.03498880312500 
 S -5.63820080000000 4.09424437812500 6.10931480312500 
 S -2.72088080000000 0.926892378125000 3.25073080312500 
 S -2.74056780000000 5.05445637812500 3.33650080312500 
 S -3.42508680000000 1.03787437812500 7.28874080312500 
 S -3.50429980000000 5.32008337812500 7.37992780312500 
