16

 C -2.91930480312500 1.34025555000000 5.59908966562500 
 C -3.05800780312500 5.08448255000000 5.19653466562500 
 C -4.09421780312500 0.978972550000001 4.82317466562500 
 C -4.35593080312500 4.88892155000000 4.51905266562500 
 N -1.84830380312500 1.47722555000000 4.82677166562500 
 N -2.10629580312500 5.15868355000000 4.29930166562500 
 N -3.89332980312500 0.748555550000001 3.54639766562500 
 N -4.28734380312500 4.53218755000000 3.25552866562500 
 N -4.93805080312500 1.55734455000000 7.24859166562500 
 N -4.72894680312500 4.98064755000000 7.10783166562500 
 S -5.52682880312500 0.867160550000001 5.84302666562500 
 S -5.61008480312500 4.80879355000000 5.74705466562500 
 S -2.31150180312500 0.912582550000001 3.24484566562500 
 S -2.71970380312500 4.78097455000000 2.80058866562500 
 S -3.28502280312500 1.64734455000000 7.28379566562500 
 S -3.10936080312500 5.34897155000000 6.91321866562500 
