16

 C -2.89100142812500 1.29850020000000 5.76403352187500 
 C -3.10203342812500 4.82273820000000 5.48901052187500 
 C -4.04498042812500 0.769801200000002 5.18411652187500 
 C -4.36384442812500 4.55475820000000 4.87626752187500 
 N -1.86596242812500 1.37657520000000 4.92643952187500 
 N -2.08177542812500 4.97564020000000 4.61003352187500 
 N -3.87566842812500 0.332365200000002 3.94536052187500 
 N -4.30607042812500 4.22379220000000 3.56824552187500 
 N -4.61125042812500 1.54909020000000 7.57886452187500 
 N -4.78340042812500 5.01211220000000 7.41103152187500 
 S -5.42886242812500 0.860485200000002 6.26614352187500 
 S -5.71627542812500 4.64209820000000 6.01658152187500 
 S -2.32583542812500 0.764714200000002 3.52119852187500 
 S -2.70671642812500 4.46801020000000 3.18074752187500 
 S -2.95934442812500 1.93376120000000 7.36133252187500 
 S -3.16706742812500 5.28509320000000 7.11722852187500 
