16

 C -3.03045970000000 1.68175009687500 5.40352167187500 
 C -3.51590270000000 4.98142309687500 5.19856567187500 
 C -4.16317670000000 1.03947609687500 4.69340467187500 
 C -4.60150470000000 4.31021809687500 4.53095567187500 
 N -1.95368470000000 1.75199809687500 4.63423867187500 
 N -2.47720270000000 5.15817309687500 4.40455867187500 
 N -3.85218270000000 0.600096096874999 3.50907867187500 
 N -4.33730270000000 3.86095109687500 3.30541667187500 
 N -4.74769070000000 1.30415909687500 7.28910467187500 
 N -5.46056270000000 5.06216009687500 6.94551467187500 
 S -5.44983570000000 0.738605096874999 5.90032867187500 
 S -5.91543170000000 4.09667109687500 5.60247367187500 
 S -2.24172870000000 1.12613509687500 3.09916967187500 
 S -2.86848670000000 4.43283009687500 2.92765867187500 
 S -3.32305370000000 2.16229709687500 7.04313667187500 
 S -3.87417770000000 5.59004509687500 6.77790967187500 
