16

 C -3.20708521875000 1.05348213437500 5.57175112812500 
 C -3.22533321875000 5.12811913437500 5.67543912812500 
 C -4.47044621875000 0.873826134375003 4.89701012812500 
 C -4.36089521875000 4.48500613437500 5.07678412812500 
 N -2.17160121875000 1.20638513437500 4.73153612812500 
 N -2.24760021875000 5.52131913437500 4.86691012812500 
 N -4.37023921875000 0.768705134375003 3.57966412812500 
 N -4.19060221875000 4.34281713437500 3.78974612812500 
 N -5.00788821875000 0.506121134375003 7.41698712812500 
 N -4.88038921875000 4.41335313437500 7.55124012812500 
 S -5.80498721875000 0.550272134375003 5.93444912812500 
 S -5.69210521875000 4.14530313437500 6.14973412812500 
 S -2.75668221875000 0.920333134375003 3.18474812812500 
 S -2.74712421875000 5.02263313437500 3.34720312812500 
 S -3.44051221875000 0.991770134375003 7.28853012812500 
 S -3.50245521875000 5.32251113437500 7.39852512812500 
