16

 C -3.22914810000000 0.982400156250004 5.40290066250000 
 C -3.12493210000000 4.58132315625001 5.56133366250000 
 C -4.41473110000000 0.548658156250005 4.78995066250000 
 C -4.42042710000000 4.72640015625000 4.92635966250000 
 N -2.24725610000000 1.33829815625000 4.62463866250000 
 N -2.12484010000000 4.40303415625000 4.65874966250000 
 N -4.25284110000000 0.528289156250004 3.47294366250000 
 N -4.41143610000000 4.72879115625001 3.60766166250000 
 N -4.83576410000000 0.531744156250005 7.34513366250000 
 N -4.87479010000000 4.83269215625000 7.49480366250000 
 S -5.67031410000000 0.198229156250004 5.94456066250000 
 S -5.71932910000000 4.74754315625000 6.04607366250000 
 S -2.83133310000000 1.19082815625000 3.08155866250000 
 S -2.91108810000000 4.45517315625000 3.12134166250000 
 S -3.19203010000000 0.937348156250004 7.11417366250000 
 S -3.20008110000000 4.85843215625000 7.28818666250000 
