16

 C -3.14078238750000 1.48984445000000 5.73111044687500 
 C -3.01159238750000 4.63350545000000 5.47160944687500 
 C -4.35213738750000 1.16345145000000 5.11668644687500 
 C -4.25785738750000 4.23878345000000 4.86678744687500 
 N -2.12921638750000 1.65782145000000 4.89538544687500 
 N -1.99032438750000 4.77639545000000 4.61595344687500 
 N -4.20796038750000 0.879993450000002 3.83358344687500 
 N -4.14555238750000 3.96607845000000 3.58035944687500 
 N -4.77382738750000 1.45311945000000 7.58819144687500 
 N -4.89824238750000 4.49177145000000 7.36382344687500 
 S -5.67431538750000 1.14878245000000 6.21201744687500 
 S -5.62490938750000 4.15742745000000 5.90908044687500 
 S -2.61095738750000 1.20060045000000 3.37036444687500 
 S -2.63064238750000 4.32867545000000 3.08193544687500 
 S -3.17902438750000 1.71625545000000 7.42491344687500 
 S -3.26557338750000 4.61901345000000 7.24734344687500 
