16

 C -2.93420193125000 1.37085126875000 5.26832999062500 
 C -3.18828593125000 5.08259026875000 5.31798999062500 
 C -4.27090493125000 0.967475268750002 4.79077799062500 
 C -4.44844393125000 4.46121126875000 4.88282099062500 
 N -1.96085093125000 1.42815526875000 4.38222999062500 
 N -2.27308593125000 5.38038626875000 4.42500399062500 
 N -4.25914093125000 0.606934268750001 3.54423399062500 
 N -4.51770393125000 4.34333126875000 3.55798599062500 
 N -4.54860993125000 1.32290726875000 7.39554199062500 
 N -4.78574593125000 4.91510926875000 7.32101299062500 
 S -5.47445993125000 0.893452268750002 6.05235599062500 
 S -5.63635993125000 4.18798126875000 6.07283599062500 
 S -2.72103593125000 1.01538426875000 2.92288999062500 
 S -3.08865693125000 4.93176226875000 2.97351799062500 
 S -2.95774093125000 1.62313626875000 7.03738299062500 
 S -3.25769093125000 5.37270526875000 7.06679599062500 
