16

 C -2.96125578437500 1.46225316875000 5.37231151562500 
 C -3.31138178437500 5.22467416875000 5.95829651562500 
 C -4.15180878437500 0.992488168750000 4.73235451562500 
 C -4.45105478437500 4.87682816875000 5.21699551562500 
 N -1.94405678437500 1.58094016875000 4.51691551562500 
 N -2.18286878437500 5.44323216875000 5.26640751562500 
 N -4.04161378437500 0.844729168750000 3.43715351562500 
 N -4.18443878437500 4.76648216875000 3.88495251562500 
 N -4.84915078437500 1.24469816875000 7.17095051562500 
 N -5.02079078437500 5.05009216875000 7.71923151562500 
 S -5.50087578437500 0.676723168750000 5.72259151562500 
 S -5.79821278437500 4.81442216875000 6.30838651562500 
 S -2.55484178437500 1.22639016875000 2.96517251562500 
 S -2.57322478437500 5.13620416875000 3.68718251562500 
 S -3.25689278437500 1.75379416875000 7.10963651562500 
 S -3.46772978437500 5.53048816875000 7.60376151562500 
