16

 C -3.13044369687500 1.42907257812500 5.62356185000000 
 C -3.00069669687500 5.27849657812500 5.86922285000000 
 C -4.35690069687500 1.01498257812500 4.92405085000000 
 C -4.18627869687500 4.90767857812500 5.15346885000000 
 N -2.12261169687500 1.67008657812500 4.80284285000000 
 N -1.98315569687500 5.55999257812500 5.04583085000000 
 N -4.16700869687500 0.974028578125000 3.61952785000000 
 N -4.01530869687500 4.71346757812500 3.83337485000000 
 N -4.94624669687500 1.11261757812500 7.49808785000000 
 N -4.84697369687500 4.94493157812500 7.61490685000000 
 S -5.64427969687500 0.709535578125000 6.06852485000000 
 S -5.56286169687500 4.78976557812500 6.14965985000000 
 S -2.54731169687500 1.30372757812500 3.25588685000000 
 S -2.42770969687500 5.07851457812500 3.54122485000000 
 S -3.34584069687500 1.58529257812500 7.32740985000000 
 S -3.21689569687500 5.29451757812500 7.66788485000000 
