16

 C -2.95430525625000 1.48354035937500 5.31764063125000 
 C -3.20214225625000 4.84085135937500 5.59059163125000 
 C -4.17807925625000 0.961347359375002 4.76377263125000 
 C -4.44122625625000 4.48501935937500 4.92566763125000 
 N -2.04985925625000 1.75859435937500 4.41790363125000 
 N -2.29450325625000 5.35318635937500 4.74226163125000 
 N -4.12484725625000 0.825983359375002 3.45040463125000 
 N -4.38841125625000 4.46091635937500 3.60017763125000 
 N -4.41716425625000 1.00675335937500 7.27873963125000 
 N -5.00987025625000 4.50456835937500 7.41774763125000 
 S -5.34147525625000 0.671691359375001 5.93704563125000 
 S -5.76074225625000 4.04124235937500 5.96679463125000 
 S -2.62181925625000 1.35166135937500 2.94393963125000 
 S -2.90800125625000 5.06763035937500 3.24295063125000 
 S -2.95575325625000 1.75307235937500 7.02789863125000 
 S -3.41831625625000 4.97044735937500 7.29324663125000 
