16

 C -3.41919951875000 1.32891657187500 5.44995765000000 
 C -3.17917651875000 5.19664057187500 5.82669165000000 
 C -4.58987751875000 0.884644571874999 4.70813265000000 
 C -4.40476051875000 4.78494757187500 5.22230465000000 
 N -2.35197551875000 1.52725657187500 4.68525165000000 
 N -2.21133651875000 5.56823957187500 4.98250665000000 
 N -4.43872551875000 0.686638571874999 3.41614165000000 
 N -4.37917551875000 4.74176557187500 3.88989865000000 
 N -5.18196951875000 0.949606571874999 7.30931365000000 
 N -4.92877651875000 4.63674057187500 7.71713265000000 
 S -5.87186751875000 0.369975571874999 5.91252965000000 
 S -5.73542551875000 4.34341457187500 6.23947765000000 
 S -2.87169651875000 1.22098157187500 3.12118865000000 
 S -2.82364051875000 5.31964957187500 3.48028665000000 
 S -3.56678351875000 1.20170057187500 7.19019065000000 
 S -3.35251851875000 5.28774657187500 7.54238065000000 
