16

 C -2.96573064687500 1.44106542812500 5.31651080000000 
 C -3.20127064687500 4.83712542812500 5.56095080000000 
 C -4.17355364687500 0.963670428125000 4.75583580000000 
 C -4.44631064687500 4.44739842812500 4.92753780000000 
 N -2.07507064687500 1.73318842812500 4.42266880000000 
 N -2.28522164687500 5.35684942812500 4.73870280000000 
 N -4.13985264687500 0.818166428125001 3.46744880000000 
 N -4.37950964687500 4.46346942812500 3.60829880000000 
 N -4.44338664687500 1.00147842812500 7.28205080000000 
 N -5.00083164687500 4.50467742812500 7.41789480000000 
 S -5.36325364687500 0.683375428125001 5.92672880000000 
 S -5.77310664687500 4.04474442812500 5.97192880000000 
 S -2.63838864687500 1.35420542812500 2.92704280000000 
 S -2.90918164687500 5.06872942812500 3.23026580000000 
 S -2.98095864687500 1.75915742812500 7.04616380000000 
 S -3.41927664687500 4.97815842812500 7.29057280000000 
