16

 C -3.33508936250000 1.30228185312500 5.53808727187500 
 C -3.37414436250000 4.79119785312500 5.24524127187500 
 C -4.45013836250000 0.690362853124997 4.91409827187500 
 C -4.63247936250000 4.43323885312500 4.65135827187500 
 N -2.30696736250000 1.54967685312500 4.75484127187500 
 N -2.35708936250000 5.14241585312500 4.46639527187500 
 N -4.35550336250000 0.598578853124998 3.59726227187500 
 N -4.51771436250000 4.47399285312500 3.32940327187500 
 N -5.04048236250000 0.952599853124998 7.36538127187500 
 N -5.12816736250000 4.60370785312500 7.11674927187500 
 S -5.77217536250000 0.306109853124998 6.00958827187500 
 S -5.99942836250000 4.43572585312500 5.71746127187500 
 S -2.79246336250000 1.14172285312500 3.21491427187500 
 S -2.99407836250000 4.96923485312500 2.91556327187500 
 S -3.46960536250000 1.48583885312500 7.24540727187500 
 S -3.54561236250000 4.99443285312500 6.97313727187500 
