16

 C -2.95999537187500 1.51523307500000 5.73233222812500 
 C -3.19398237187500 4.57675507500000 5.56046022812500 
 C -4.19071237187500 1.17260107500000 5.14104622812500 
 C -4.42731637187500 4.41263507500000 4.89194722812500 
 N -1.95655737187500 1.59932007500000 4.86716122812500 
 N -2.13201737187500 4.66385807500000 4.79110022812500 
 N -4.17007537187500 0.949709074999998 3.83043422812500 
 N -4.28435637187500 4.39655607500000 3.56948522812500 
 N -4.77144337187500 1.52167807500000 7.63417622812500 
 N -4.89317137187500 4.55053707500000 7.39245322812500 
 S -5.56967437187500 1.24138007500000 6.17491422812500 
 S -5.74371137187500 4.27768007500000 5.99378422812500 
 S -2.57588937187500 1.25392707500000 3.39510922812500 
 S -2.65217937187500 4.53961607500000 3.27080122812500 
 S -3.13441637187500 1.68993907500000 7.46795822812500 
 S -3.23633837187500 4.79227407500000 7.25747922812500 
