16

 C -3.00098682500000 1.26345879375000 5.54528560937500 
 C -3.17654582500000 5.43196579375000 5.29507760937500 
 C -4.17021782500000 0.862584793750002 4.86240060937500 
 C -4.30343182500000 4.80213179375000 4.65856560937500 
 N -1.95922482500000 1.33625279375000 4.68018760937500 
 N -2.12415982500000 5.57126279375000 4.48067760937500 
 N -4.11371782500000 0.747086793750002 3.53378160937500 
 N -4.25122882500000 4.73095879375000 3.34359660937500 
 N -4.89595082500000 1.03583579375000 7.32071660937500 
 N -4.84242382500000 4.94379079375000 7.23717960937500 
 S -5.64641882500000 0.844940793750002 5.88420960937500 
 S -5.59942782500000 4.56334779375000 5.80510260937500 
 S -2.43887282500000 0.950764793750002 3.17654260937500 
 S -2.69880682500000 5.22515679375000 2.93052960937500 
 S -3.31551682500000 1.51948279375000 7.24789360937500 
 S -3.26658682500000 5.47528679375000 7.07636360937500 
