16

 C -2.92214365937500 1.65634568750000 5.41477896562500 
 C -3.21492765937500 5.02078868750000 5.63160096562500 
 C -4.22480065937500 1.33946468750000 4.89562696562500 
 C -4.47478965937500 4.76612968750000 4.95956696562500 
 N -1.93375465937500 1.68351968750000 4.49889496562500 
 N -2.17702165937500 5.26565568750000 4.82901296562500 
 N -4.16881265937500 1.10142468750000 3.59362796562500 
 N -4.33015965937500 4.65888768750000 3.65372696562500 
 N -4.58012065937500 1.78352468750000 7.36676596562500 
 N -4.92196865937500 4.68479068750000 7.43410296562500 
 S -5.43600065937500 1.19294268750000 6.08077796562500 
 S -5.79312565937500 4.45576168750000 6.08182496562500 
 S -2.64197865937500 1.36497168750000 3.01953796562500 
 S -2.75806665937500 4.99779668750000 3.24301096562500 
 S -2.99129465937500 1.98713168750000 7.08418196562500 
 S -3.36564565937500 5.23678968750000 7.35108796562500 
