16

 C -3.03071210937500 0.927855812500003 5.48939200312500 
 C -3.00228610937500 5.02085681250000 5.53523900312500 
 C -4.20919210937500 0.584301812500003 4.72579100312500 
 C -4.29166610937500 4.79999181250000 4.94685300312500 
 N -1.93471010937500 1.10957781250000 4.75445200312500 
 N -1.98232010937500 4.94159681250000 4.65829100312500 
 N -4.08478710937500 0.505078812500003 3.39029400312500 
 N -4.29688710937500 4.54120381250000 3.60227900312500 
 N -4.99526410937500 1.01568081250000 7.19960800312500 
 N -4.87890910937500 5.09358081250000 7.40419800312500 
 S -5.64073110937500 0.445989812500003 5.75165700312500 
 S -5.63545710937500 4.87172881250000 5.91678500312500 
 S -2.39312010937500 0.794650812500003 3.18847300312500 
 S -2.68124510937500 4.67020381250000 3.19192100312500 
 S -3.37735210937500 1.33189981250000 7.16887800312500 
 S -3.22504510937500 5.29970081250000 7.25752500312500 
