16

 C -3.07691009375000 1.07686251562500 5.46903017187500 
 C -3.17278809375000 4.81470451562500 5.45981417187500 
 C -4.26342109375000 0.667360515624997 4.77244617187500 
 C -4.45182409375000 4.68723951562500 4.83736017187500 
 N -2.09686809375000 1.32389151562500 4.62218017187500 
 N -2.08082409375000 4.79323651562500 4.68895417187500 
 N -4.16599909375000 0.593942515624997 3.45530117187500 
 N -4.35370309375000 4.40008851562500 3.55650417187500 
 N -4.90938509375000 0.592619515624997 7.29717817187500 
 N -4.82592809375000 5.06260551562500 7.41821817187500 
 S -5.57820109375000 0.294730515624997 5.80156517187500 
 S -5.71386609375000 4.96080751562500 6.03908017187500 
 S -2.63327109375000 0.950525515624997 3.05259517187500 
 S -2.77016709375000 4.48833251562500 3.18879417187500 
 S -3.27963709375000 1.06367051562500 7.21601117187500 
 S -3.17459709375000 4.87963251562500 7.15326717187500 
