16

 C -3.34560331250000 1.23994765000000 5.42483727812500 
 C -3.18347831250000 5.12125665000000 5.02300127812500 
 C -4.43275831250000 0.524812650000001 4.71963427812500 
 C -4.25143431250000 4.44548365000000 4.35247227812500 
 N -2.35717831250000 1.68117465000000 4.62915727812500 
 N -2.23076931250000 5.57575265000000 4.18639127812500 
 N -4.24024731250000 0.324180650000002 3.38609027812500 
 N -4.13934731250000 4.36747565000000 3.04302027812500 
 N -5.12973431250000 0.844796650000001 7.26490927812500 
 N -4.76805831250000 4.23257765000000 6.88561527812500 
 S -5.75794931250000 0.185946650000001 5.84303427812500 
 S -5.51201431250000 3.86250165000000 5.39943727812500 
 S -2.78963431250000 1.17991165000000 3.13177027812500 
 S -2.67249231250000 5.11769765000000 2.68571127812500 
 S -3.60185031250000 1.48276465000000 7.13946527812500 
 S -3.44846431250000 5.22960465000000 6.80260727812500 
