16

 C -3.60497458437500 1.38203042500000 5.83586871250000 
 C -3.25384158437500 5.14924242500000 5.34209971250000 
 C -4.70132958437500 0.890823424999999 4.93421471250000 
 C -4.43804958437500 4.54906642500000 4.79375571250000 
 N -2.48028658437500 1.53229342500000 5.15371471250000 
 N -2.26735658437500 5.28569942500000 4.47156071250000 
 N -4.33563058437500 0.629801424999999 3.69902271250000 
 N -4.39655258437500 4.23772742500000 3.48383771250000 
 N -5.60632958437500 0.800956424999999 7.32671971250000 
 N -4.81724658437500 4.84431442500000 7.31526871250000 
 S -6.15257358437500 0.488696424999999 5.79687871250000 
 S -5.67601858437500 4.44003942500000 5.98411971250000 
 S -2.74539758437500 1.16593842500000 3.53758171250000 
 S -2.85823658437500 4.74539542500000 2.99879471250000 
 S -4.06497358437500 1.37596342500000 7.50454871250000 
 S -3.26675358437500 5.40817542500000 7.06146971250000 
