16

 C -3.19911248125000 1.73746749375000 5.67485980000000 
 C -2.98791248125000 5.12669749375000 5.45640880000000 
 C -4.43246648125000 1.28920949375000 5.04440380000000 
 C -4.22380348125000 4.79794649375000 4.81756080000000 
 N -2.21693148125000 1.81086249375000 4.82211880000000 
 N -1.90493748125000 5.32575249375000 4.67362080000000 
 N -4.39317948125000 1.03269949375000 3.75649480000000 
 N -4.09077048125000 4.76646949375000 3.46083680000000 
 N -5.04934448125000 1.36153949375000 7.48893980000000 
 N -4.66868148125000 5.05715249375000 7.44183980000000 
 S -5.80842248125000 1.07857649375000 6.02414580000000 
 S -5.56620648125000 4.66695049375000 6.03216380000000 
 S -2.85068448125000 1.40778149375000 3.24595280000000 
 S -2.49596548125000 5.07020649375000 3.09857080000000 
 S -3.48342948125000 1.87868449375000 7.41751580000000 
 S -2.95163448125000 5.28182049375000 7.17090680000000 
