16

 C -3.30140900625000 1.30886100312500 5.36132869375000 
 C -3.19232300625000 5.39919900312500 5.70192269375000 
 C -4.42747700625000 0.693640003125002 4.79366469375000 
 C -4.37559700625000 5.17816000312500 4.92610269375000 
 N -2.31509000625000 1.61000700312500 4.53654369375000 
 N -2.06456100625000 5.60293900312500 5.04034869375000 
 N -4.33624100625000 0.542542003125002 3.46961969375000 
 N -4.13836500625000 5.02537000312500 3.64585369375000 
 N -5.14535700625000 1.15126800312500 7.18646969375000 
 N -5.17883700625000 5.17331800312500 7.42118169375000 
 S -5.79734600625000 0.391514003125002 5.87860769375000 
 S -5.81678200625000 5.08051200312500 5.88355169375000 
 S -2.80599200625000 1.07605500312500 3.04405569375000 
 S -2.50357100625000 5.38888300312500 3.47153169375000 
 S -3.50312000625000 1.50236600312500 7.06148969375000 
 S -3.49344300625000 5.46339300312500 7.37591069375000 
