16

 C -2.82874418125000 1.27828431875000 5.32332880000000 
 C -3.18171918125000 4.96268331875000 5.43671180000000 
 C -4.07001218125000 0.786565318750004 4.84949280000000 
 C -4.40185618125000 4.39300931875000 4.81471680000000 
 N -1.89064318125000 1.52421331875000 4.37022180000000 
 N -2.17751018125000 5.21055731875000 4.56998780000000 
 N -4.14598518125000 0.679997318750003 3.51218780000000 
 N -4.30980118125000 4.32276531875000 3.49001780000000 
 N -4.47873218125000 1.19537031875000 7.33287780000000 
 N -4.79978718125000 5.04360931875000 7.38926580000000 
 S -5.36466318125000 0.808984318750003 5.92248680000000 
 S -5.60707218125000 4.24596931875000 6.11685980000000 
 S -2.66309618125000 1.11341031875000 2.93592780000000 
 S -2.80903618125000 4.88417331875000 3.03792980000000 
 S -2.91708718125000 1.78161431875000 7.03741180000000 
 S -3.25643118125000 5.46787731875000 7.09735680000000 
