16

 C -3.26335026250000 1.18726594062500 5.55302055937500 
 C -3.41915926250000 4.76221294062500 5.31149255937500 
 C -4.38220226250000 0.676877940624998 4.83319755937500 
 C -4.68182026250000 4.49406094062500 4.66612255937500 
 N -2.24971326250000 1.55164494062500 4.79518455937500 
 N -2.35777826250000 4.91953194062500 4.49598555937500 
 N -4.20608326250000 0.587176940624998 3.52745455937500 
 N -4.61849826250000 4.55908994062500 3.32947255937500 
 N -5.08863926250000 0.889863940624998 7.29385655937500 
 N -5.15757326250000 4.74102494062500 7.24796855937500 
 S -5.64804126250000 0.124760940624998 5.92811255937500 
 S -5.97514826250000 4.51359894062500 5.79500855937500 
 S -2.70643226250000 1.23421094062500 3.25348655937500 
 S -3.00278426250000 4.92985294062500 2.99454355937500 
 S -3.48708426250000 1.30010994062500 7.25707255937500 
 S -3.46960126250000 4.86803094062500 7.07941655937500 
