16

 C -3.12722791562500 1.72734420937500 5.77153509062500 
 C -3.16127991562500 5.28043420937500 5.89216509062500 
 C -4.27696191562500 1.08025620937500 5.10332209062500 
 C -4.29831891562500 4.66253420937500 5.29863509062500 
 N -2.15054191562500 1.92352720937500 4.91277209062500 
 N -2.15195291562500 5.53482820937500 5.06125209062500 
 N -4.18097591562500 0.776897209375003 3.81310409062500 
 N -4.12242591562500 4.51578820937500 3.95159509062500 
 N -5.05702991562500 1.10620020937500 7.43093409062500 
 N -4.68063991562500 4.86984020937500 7.90560609062500 
 S -5.68412291562500 0.654644209375004 5.98471609062500 
 S -5.63812891562500 4.45116920937500 6.46361409062500 
 S -2.72424391562500 1.44575720937500 3.33987709062500 
 S -2.58829391562500 5.06903920937500 3.55515509062500 
 S -3.57600591562500 1.88691220937500 7.48585709062500 
 S -3.16920291562500 5.61723020937500 7.54702109062500 
