16

 C -3.00740099687500 1.39396256875000 5.48797969687500 
 C -3.19094899687500 5.02494056875000 5.40197769687500 
 C -4.16237399687500 0.942828568749999 4.76982969687500 
 C -4.43537399687500 4.52669956875000 4.92813869687500 
 N -1.95316499687500 1.64923356875000 4.73463669687500 
 N -2.20164899687500 5.16949756875000 4.53214869687500 
 N -3.97476899687500 0.697962568749999 3.48030469687500 
 N -4.38075599687500 4.26610456875000 3.62078469687500 
 N -5.00910499687500 1.35133656875000 7.18723569687500 
 N -4.90334899687500 5.19323256875000 7.34053169687500 
 S -5.64546899687500 0.903339568749999 5.69762869687500 
 S -5.71513199687500 4.46009656875000 6.07211669687500 
 S -2.41477199687500 1.05652556875000 3.19909069687500 
 S -2.85466099687500 4.63905556875000 3.08849769687500 
 S -3.40804299687500 1.86620656875000 7.17683969687500 
 S -3.31930399687500 5.52973556875000 7.00907869687500 
