16

 C -3.07470628437500 1.61797684062500 5.68370558437500 
 C -3.03946928437500 5.29369084062500 5.75376858437500 
 C -4.16525228437500 0.912548840625001 5.07522558437500 
 C -4.29868728437500 4.94339184062500 5.13365358437500 
 N -1.99134928437500 1.75887184062500 4.90154858437500 
 N -2.02467928437500 5.36338884062500 4.90877058437500 
 N -3.87979828437500 0.569946840625001 3.82369158437500 
 N -4.23722028437500 4.73939584062500 3.83340758437500 
 N -4.86802628437500 1.42528484062500 7.57017158437500 
 N -4.89103928437500 5.22765384062500 7.54514358437500 
 S -5.54307228437500 0.781940840625001 6.17787258437500 
 S -5.68785528437500 4.83950884062500 6.17748758437500 
 S -2.35002728437500 1.21654184062500 3.37467958437500 
 S -2.65008128437500 5.03142484062500 3.40918958437500 
 S -3.32077928437500 2.02093984062500 7.34890058437500 
 S -3.31490228437500 5.58357184062500 7.42950458437500 
