16

 C -3.63147213125000 1.09949765937500 5.66529067187500 
 C -2.99077213125000 4.99748565937500 5.36757367187500 
 C -4.80181713125000 0.574066659375004 4.93319867187500 
 C -4.21160413125000 4.48245765937500 4.83004767187500 
 N -2.70240213125000 1.58198765937500 4.80577767187500 
 N -2.05322913125000 5.12826565937500 4.42662667187500 
 N -4.65429713125000 0.464289659375004 3.60921867187500 
 N -4.17189213125000 4.14554265937500 3.55580067187500 
 N -5.55295313125000 0.614600659375004 7.41306467187500 
 N -4.72175713125000 4.95678565937500 7.28956067187500 
 S -6.20739913125000 0.152285659375004 5.96794867187500 
 S -5.53547313125000 4.27206965937500 6.00491167187500 
 S -3.18455013125000 1.05367565937500 3.29538267187500 
 S -2.66970913125000 4.50682665937500 2.99728267187500 
 S -3.96970413125000 1.17330265937500 7.39460267187500 
 S -3.17234513125000 5.44082665937500 7.07062467187500 
