16

 C -2.81235867500000 1.44221165312500 5.78049424062500 
 C -3.34385667500000 5.20840365312500 5.65264024062500 
 C -4.09085167500000 1.32577965312500 5.14564524062500 
 C -4.56020767500000 4.91060765312500 4.98297724062500 
 N -1.77215767500000 1.37133165312500 4.93796924062500 
 N -2.30781067500000 5.33791165312500 4.80176524062500 
 N -4.10987367500000 1.29190465312500 3.80734324062500 
 N -4.49702467500000 4.79123565312500 3.65774424062500 
 N -4.57290867500000 1.36618865312500 7.72641524062500 
 N -5.08700967500000 4.93308365312500 7.46230024062500 
 S -5.44775867500000 1.28690665312500 6.29550724062500 
 S -5.87620367500000 4.70430265312500 6.04765324062500 
 S -2.46788067500000 1.36158965312500 3.45886024062500 
 S -2.86917867500000 4.97340465312500 3.33983124062500 
 S -2.94267367500000 1.53398565312500 7.57911824062500 
 S -3.45316667500000 5.14472365312500 7.35074524062500 
