16

 C -3.50706172187500 1.59780272500000 5.37701003437500 
 C -3.28240272187500 4.93281072500000 5.78102003437500 
 C -4.62357972187500 1.05565072500000 4.56954003437500 
 C -4.53554672187500 4.67422672500000 5.10589503437500 
 N -2.53587872187500 1.99788772500000 4.59309503437500 
 N -2.27144472187500 5.09501372500000 4.92851503437500 
 N -4.45643772187500 1.00073372500000 3.29579903437500 
 N -4.46986272187500 4.47414272500000 3.80524503437500 
 N -5.23089672187500 0.919064724999999 7.06711103437500 
 N -5.08637472187500 4.97431772500000 7.64692003437500 
 S -6.02817072187500 0.684362724999999 5.60692503437500 
 S -5.84508972187500 4.64637772500000 6.16038203437500 
 S -2.86214072187500 1.57585972500000 3.07613703437500 
 S -2.87124572187500 4.77763972500000 3.41870803437500 
 S -3.78464572187500 1.70948172500000 7.05150303437500 
 S -3.41386772187500 5.16359272500000 7.50688403437500 
