16

 C -2.61685884062500 1.57231165625000 5.41146930625000 
 C -3.40183484062500 5.05457065625000 5.57377630625000 
 C -3.74565184062500 0.864497656250000 4.87583430625000 
 C -4.52435884062500 4.46007465625000 4.90531130625000 
 N -1.84595684062500 2.05307965625000 4.43504630625000 
 N -2.37630884062500 5.38407765625000 4.80298030625000 
 N -3.72712284062500 0.752447656250000 3.55349930625000 
 N -4.39335484062500 4.42855965625000 3.56837830625000 
 N -4.21567784062500 1.03751265625000 7.29270530625000 
 N -5.07421084062500 4.39597265625000 7.38268530625000 
 S -5.01493184062500 0.548550656250000 5.93474130625000 
 S -5.78038284062500 4.04179465625000 5.93385430625000 
 S -2.43511084062500 1.60223665625000 2.94962730625000 
 S -2.92067784062500 5.11951765625000 3.28280230625000 
 S -2.87203684062500 1.99991265625000 7.03197330625000 
 S -3.58986084062500 5.13550865625000 7.33156330625000 
