16

 C -3.26309408125000 1.11223260312500 5.51337604687500 
 C -2.81925108125000 5.09074960312500 5.45507504687500 
 C -4.55201308125000 0.737047603124999 5.01215604687500 
 C -4.05013208125000 4.94927160312500 4.73841504687500 
 N -2.36078008125000 1.26063260312500 4.55859904687500 
 N -1.71177908125000 5.31287160312500 4.72929104687500 
 N -4.56052708125000 0.492735603124999 3.70783704687500 
 N -3.81676708125000 4.84746860312500 3.44480104687500 
 N -4.78349608125000 1.36966460312500 7.42780904687500 
 N -4.78738808125000 5.07412460312500 7.12732804687500 
 S -5.72734908125000 0.607755603124999 6.23890204687500 
 S -5.44647808125000 4.62356060312500 5.68214404687500 
 S -3.03083508125000 0.880336603125000 3.12807304687500 
 S -2.24414108125000 5.14306260312500 3.15564204687500 
 S -3.12417008125000 1.26934960312500 7.21069404687500 
 S -3.10441008125000 5.08733660312500 7.17866404687500 
