16

 C -3.03556295625000 1.39452395625000 5.44305685937500 
 C -3.05743995625000 5.12522895625000 5.65850185937500 
 C -4.13787595625000 0.803052956249995 4.77196185937500 
 C -4.17107895625000 4.45814595625000 4.91764185937500 
 N -2.05098795625000 1.70964495625000 4.59209485937500 
 N -2.00688495625000 5.30388995625000 4.89557485937500 
 N -4.02653495625000 0.644584956249996 3.44102685937500 
 N -3.89712295625000 4.19660495625000 3.61553585937500 
 N -4.77114795625000 0.962819956249995 7.36063885937500 
 N -5.08136695625000 5.00460695625000 7.22270885937500 
 S -5.42850495625000 0.377534956249996 5.93901885937500 
 S -5.66688595625000 4.39535095625000 5.82772885937500 
 S -2.54637495625000 1.35173495625000 3.05973485937500 
 S -2.34019095625000 4.79734395625000 3.37370085937500 
 S -3.23500695625000 1.66565295625000 7.15116085937500 
 S -3.51027195625000 5.53143495625000 7.25255485937500 
