16

 C -3.73985060625000 1.22943104375000 5.75690492187500 
 C -3.09142060625000 5.06745404375000 5.33987892187500 
 C -4.77823260625000 0.714451043750003 4.97252092187500 
 C -4.32251860625000 4.45707504375000 4.83352692187500 
 N -2.65133260625000 1.53915404375000 5.07568592187500 
 N -2.12672460625000 5.08450204375000 4.42418292187500 
 N -4.56692860625000 0.693948043750003 3.65522692187500 
 N -4.34955160625000 4.22060804375000 3.52367892187500 
 N -5.61845560625000 0.691330043750003 7.32112692187500 
 N -4.79742560625000 4.96042104375000 7.31017092187500 
 S -6.25797560625000 0.315819043750003 5.84068992187500 
 S -5.61920660625000 4.32136204375000 6.01132292187500 
 S -2.93190560625000 1.14363704375000 3.48106192187500 
 S -2.82353560625000 4.61693004375000 2.96165792187500 
 S -4.09149860625000 1.28472104375000 7.40702392187500 
 S -3.22842760625000 5.51005404375000 7.01754492187500 
