16

 C -2.88459566562500 1.40597536562500 5.66575477187500 
 C -3.04708766562500 4.90726836562500 5.36839277187500 
 C -4.11734166562500 0.831738365625003 5.11148077187500 
 C -4.28090466562500 4.44325436562500 4.79206277187500 
 N -1.94653966562500 1.56519536562500 4.76099077187500 
 N -2.04908366562500 4.87570736562500 4.52947177187500 
 N -4.03647766562500 0.389047365625003 3.86531977187500 
 N -4.23693566562500 4.12288536562500 3.51848777187500 
 N -4.65736266562500 1.42886136562500 7.43326477187500 
 N -4.91107366562500 5.13284036562500 7.15895777187500 
 S -5.43724966562500 0.758028365625003 6.13216577187500 
 S -5.65456866562500 4.46871236562500 5.78461677187500 
 S -2.51302166562500 0.802505365625004 3.38241077187500 
 S -2.68372866562500 4.31632236562500 3.06730377187500 
 S -3.04939366562500 1.85682836562500 7.33907877187500 
 S -3.20047766562500 5.38904436562500 7.02301477187500 
