16

 C -3.12726660312500 1.66030268125000 5.42641966250000 
 C -3.66853460312500 5.03811668125000 5.02371466250000 
 C -4.13593660312500 0.725122681249999 4.94765366250000 
 C -4.68961960312500 4.23687368125000 4.44338966250000 
 N -2.19527660312500 1.97721868125000 4.52605266250000 
 N -2.59156860312500 5.24460268125000 4.26296166250000 
 N -3.90969860312500 0.327184681249999 3.65592866250000 
 N -4.48701260312500 3.91351068125000 3.15700966250000 
 N -4.81606260312500 1.30598768125000 7.39266166250000 
 N -5.45876560312500 4.83470568125000 6.85839666250000 
 S -5.45829360312500 0.599435681249999 6.02636266250000 
 S -6.00196360312500 3.97173868125000 5.54013466250000 
 S -2.54193860312500 1.06475868125000 3.16210466250000 
 S -2.94048860312500 4.56185468125000 2.79568366250000 
 S -3.40383760312500 2.16975768125000 7.14604066250000 
 S -3.83608260312500 5.23027468125000 6.73808466250000 
