16

 C -2.90501073125000 1.73896774687500 5.44101402500000 
 C -3.22235773125000 5.12158274687500 5.61740702500000 
 C -4.20960273125000 1.29628874687500 4.87097202500000 
 C -4.42461873125000 4.61341974687500 5.01660502500000 
 N -1.88693673125000 1.80038374687500 4.56462702500000 
 N -2.15009473125000 5.26537874687500 4.81870002500000 
 N -4.18574573125000 1.09259574687500 3.53924802500000 
 N -4.32276173125000 4.54425074687500 3.69748402500000 
 N -4.52806873125000 1.87650574687500 7.37180702500000 
 N -4.94387973125000 4.86674074687500 7.57781302500000 
 S -5.45746673125000 1.29797174687500 6.07458202500000 
 S -5.80821973125000 4.53966974687500 6.13193502500000 
 S -2.62323673125000 1.49583574687500 3.10580002500000 
 S -2.74089873125000 5.00994074687500 3.31323402500000 
 S -2.82863073125000 1.99920874687500 7.13941502500000 
 S -3.33163773125000 5.23693574687500 7.30880502500000 
