16

 C -3.50338986562500 1.53275850312500 5.53480026250000 
 C -2.95446286562500 5.19099050312500 5.49163026250000 
 C -4.47101186562500 0.653707503125000 4.93313126250000 
 C -4.18369786562500 4.83498150312500 4.77313526250000 
 N -2.45561286562500 1.77347350312500 4.76191626250000 
 N -1.89504886562500 5.23807150312500 4.72066126250000 
 N -4.15739986562500 0.188909503125000 3.70229526250000 
 N -4.00708086562500 4.56597350312500 3.49218926250000 
 N -5.18406086562500 0.978098503125000 7.32606426250000 
 N -4.79318286562500 4.96749650312500 7.24311726250000 
 S -5.79276686562500 0.289553503125000 5.99907726250000 
 S -5.61571786562500 4.89385250312500 5.77405226250000 
 S -2.73089286562500 1.00425550312500 3.27237826250000 
 S -2.45405586562500 4.83766250312500 3.12003126250000 
 S -3.75051686562500 1.81842050312500 7.19411926250000 
 S -3.17214586562500 5.46261250312500 7.19542326250000 
