16

 C -3.29576738125000 1.04374018750000 5.40810126562500 
 C -3.25887238125000 5.17107218750000 5.37133126562500 
 C -4.53977538125000 0.763754187500003 4.70537526562500 
 C -4.34045538125000 4.55586418750000 4.68425926562500 
 N -2.16314538125000 1.12155818750000 4.70142926562500 
 N -2.29200038125000 5.58519818750000 4.54361026562500 
 N -4.37470738125000 0.646220187500003 3.38675226562500 
 N -4.28271038125000 4.53456018750000 3.34065826562500 
 N -5.16880238125000 0.789590187500003 7.27705026562500 
 N -5.10194938125000 4.65699718750000 7.15730826562500 
 S -5.93559838125000 0.465147187500003 5.79533426562500 
 S -5.55845838125000 3.91583518750000 5.70814926562500 
 S -2.69750238125000 0.923562187500003 3.15865326562500 
 S -2.77580938125000 5.22354018750000 3.03430026562500 
 S -3.52971838125000 1.03480718750000 7.16232426562500 
 S -3.62131238125000 5.36676118750000 7.06235626562500 
