16

 C -2.99314579062500 1.52531359375000 5.38839647812500 
 C -3.14669679062500 5.13176759375000 5.37845647812500 
 C -4.24495379062500 1.08196059375000 4.64799947812500 
 C -4.32094179062500 4.50216059375000 4.86704047812500 
 N -1.92091979062500 1.67362359375000 4.63634547812500 
 N -2.10608779062500 5.37495659375000 4.58958947812500 
 N -4.03742579062500 1.01435459375000 3.34260847812500 
 N -4.18054179062500 4.24004959375000 3.57300847812500 
 N -4.80706279062500 1.21983759375000 7.13831847812500 
 N -4.75111079062500 4.70278059375000 7.38911347812500 
 S -5.58807079062500 1.02335059375000 5.68590147812500 
 S -5.58813779062500 4.24003959375000 6.03135647812500 
 S -2.38372679062500 1.22522759375000 3.08546447812500 
 S -2.63895979062500 4.73319859375000 3.12746947812500 
 S -3.20518279062500 1.67904559375000 7.07076947812500 
 S -3.23495079062500 5.28519659375000 7.06620147812500 
