16

 C -3.01213375624999 1.52522737812500 5.35001993437500 
 C -3.24870075624999 5.40937637812500 5.87358393437500 
 C -4.21206275624999 1.02630537812500 4.68547293437500 
 C -4.39174175624999 4.90909937812500 5.17903993437500 
 N -1.96507775624999 1.59087637812500 4.54733293437500 
 N -2.10397975624999 5.57101837812500 5.13814293437500 
 N -4.09167475624999 0.713169378125003 3.42429493437500 
 N -4.18438375624999 4.67201737812500 3.86824493437500 
 N -4.86139975624999 1.37714837812500 7.14656793437500 
 N -5.10177375624999 5.12933037812500 7.68848193437500 
 S -5.50911675624999 0.718276378125003 5.77903093437500 
 S -5.83038775624999 4.69347537812500 6.18759593437500 
 S -2.48267175624999 1.08229037812500 3.00714493437500 
 S -2.59972675624999 5.05709437812500 3.56687093437500 
 S -3.24914175624999 1.82900637812500 7.04277993437500 
 S -3.46453975624999 5.49616737812500 7.61032593437500 
