16

 C -3.05572234062500 1.43227082500000 5.49300259062500 
 C -3.00316034062500 4.95097282500000 5.29304059062500 
 C -4.25309334062500 0.907966825000003 4.82569959062500 
 C -4.27756534062500 4.68487582500000 4.66130459062500 
 N -2.00726434062500 1.55349782500000 4.71214659062500 
 N -2.00265834062500 4.67735082500000 4.47106159062500 
 N -4.13492934062500 0.757310825000003 3.52749559062500 
 N -4.29310634062500 4.57663382500000 3.32493259062500 
 N -4.80067234062500 1.32704582500000 7.38661859062500 
 N -4.69028934062500 5.25733582500000 7.21188159062500 
 S -5.60019834062500 0.920774825000003 5.98321159062500 
 S -5.58748734062500 4.89470982500000 5.80703059062500 
 S -2.47694734062500 1.05458682500000 3.21376859062500 
 S -2.60971934062500 4.55653582500000 2.95913259062500 
 S -3.29298234062500 1.85192182500000 7.21793459062500 
 S -3.00547034062500 5.32230382500000 6.97935859062500 
