16

 C -2.93909626562500 1.47267683750000 5.80750561562500 
 C -3.20184326562500 4.59050683750000 5.60762761562500 
 C -4.21608526562500 1.22209283750000 5.13969861562500 
 C -4.45167626562500 4.46728883750000 4.89772161562500 
 N -1.96908726562500 1.53619483750000 4.91229961562500 
 N -2.11169526562500 4.67283383750000 4.85601061562500 
 N -4.11203126562500 0.969259837500003 3.85567961562500 
 N -4.31922426562500 4.51818583750000 3.57124461562500 
 N -4.73797926562500 1.51814883750000 7.62782261562500 
 N -4.92389626562500 4.57978983750000 7.45118361562500 
 S -5.52316726562500 1.24816983750000 6.20071661562500 
 S -5.74641926562500 4.33222183750000 6.02144061562500 
 S -2.54309826562500 1.26506483750000 3.34235861562500 
 S -2.69539726562500 4.60674083750000 3.29021561562500 
 S -3.12246226562500 1.66779583750000 7.48519261562500 
 S -3.29365426562500 4.85957183750000 7.24690261562500 
