16

 C -3.15393992812500 1.49666543125000 5.52444219062500 
 C -3.53764092812500 5.11113343125000 5.54294519062500 
 C -4.22645692812500 0.901644431250000 4.80967719062500 
 C -4.63985992812500 4.42221243125000 4.95466419062500 
 N -2.11610392812500 1.82066643125000 4.74180719062500 
 N -2.59394392812500 5.43219543125000 4.65950319062500 
 N -4.03663992812500 0.891141431250000 3.47532719062500 
 N -4.59772992812500 4.27029243125000 3.63724719062500 
 N -4.87803092812500 0.938493431250000 7.30645619062500 
 N -5.19054592812500 4.66109643125000 7.46698119062500 
 S -5.63828892812500 0.710368431250000 5.86616019062500 
 S -5.91340592812500 4.15319143125000 6.07169819062500 
 S -2.51854292812500 1.55270343125000 3.15702719062500 
 S -3.13473692812500 4.87830343125000 3.19179719062500 
 S -3.42415392812500 1.79363243125000 7.20264819062500 
 S -3.72784892812500 5.47372143125000 7.22393519062500 
