16

 C -2.92317991250000 1.60412009687500 5.30420505625000 
 C -3.24748091250000 4.91826109687500 5.62135005625000 
 C -4.13311691250000 0.973296096874999 4.75045505625000 
 C -4.44464691250000 4.52863609687500 4.92543905625000 
 N -1.95353391250000 1.83865609687500 4.41110605625000 
 N -2.30997591250000 5.31608709687500 4.76853405625000 
 N -4.09257291250000 0.838929096874999 3.40273405625000 
 N -4.40712691250000 4.46835209687500 3.59178605625000 
 N -4.36652591250000 1.02495909687500 7.28563105625000 
 N -5.03760491250000 4.50364309687500 7.41319005625000 
 S -5.29640391250000 0.636110096874999 5.98317005625000 
 S -5.72143791250000 4.03723709687500 5.96242005625000 
 S -2.58155591250000 1.34427709687500 2.98131105625000 
 S -2.89311591250000 5.06843609687500 3.25391405625000 
 S -2.89553691250000 1.73169009687500 6.98536505625000 
 S -3.41984091250000 4.94717209687500 7.31063905625000 
