16

 C -3.23673723750000 1.41256374375000 5.63103033125000 
 C -3.03195323750000 5.19556174375000 5.47948033125000 
 C -4.45307723750000 1.16316674375000 4.83726233125000 
 C -4.27879323750000 4.71099574375000 4.84472433125000 
 N -2.16970123750000 1.68834774375000 4.87978233125000 
 N -2.01551823750000 5.33749874375000 4.65311333125000 
 N -4.23718923750000 1.28227174375000 3.52989133125000 
 N -4.19905523750000 4.75530274375000 3.52137833125000 
 N -5.06374523750000 1.07873374375000 7.42681233125000 
 N -4.81430423750000 5.26192574375000 7.26724933125000 
 S -5.75272623750000 0.880408743750000 5.90759933125000 
 S -5.67796223750000 4.63903074375000 6.00638833125000 
 S -2.65820523750000 1.77602674375000 3.31047733125000 
 S -2.58881823750000 5.10587874375000 3.13549533125000 
 S -3.41826123750000 1.15577974375000 7.34502933125000 
 S -3.18026123750000 5.47279074375000 7.17298233125000 
