16

 C -3.00312038125000 1.70005818125000 5.71153210312500 
 C -3.09910138125000 5.44359818125000 5.68254810312500 
 C -4.11587038125000 0.967662181250001 5.05296910312500 
 C -4.30606038125000 4.95890418125000 5.05379810312500 
 N -1.97327838125000 1.92598018125000 4.87262610312500 
 N -2.07498338125000 5.49509318125000 4.85135810312500 
 N -3.89058738125000 0.529945181250002 3.81279010312500 
 N -4.18727038125000 4.57789918125000 3.78718010312500 
 N -4.77690438125000 1.37654718125000 7.47559610312500 
 N -4.90696038125000 5.28829218125000 7.59433410312500 
 S -5.47050338125000 0.781489181250002 6.08143110312500 
 S -5.67209338125000 4.89662818125000 6.11614910312500 
 S -2.43323138125000 1.13493218125000 3.47295510312500 
 S -2.66942138125000 4.96592318125000 3.33996410312500 
 S -3.25391838125000 2.09317718125000 7.36201910312500 
 S -3.26043638125000 5.59739618125000 7.44156010312500 
