16

 C -3.33768487812500 1.20305448750001 5.43310828437500 
 C -3.20618087812500 5.20744848750001 5.11608828437500 
 C -4.44212887812500 0.584990487500005 4.76174028437500 
 C -4.21358587812500 4.43102748750001 4.43969228437500 
 N -2.30951987812500 1.50410048750001 4.65218528437500 
 N -2.32565287812500 5.71051648750000 4.28403828437500 
 N -4.23330387812500 0.442070487500006 3.46303028437500 
 N -4.09870387812500 4.33418048750000 3.10578428437500 
 N -5.14286587812500 0.844243487500005 7.21331028437500 
 N -4.82483587812500 4.25614048750001 6.87239728437500 
 S -5.78025487812500 0.199826487500006 5.84443328437500 
 S -5.46198387812500 3.89349748750000 5.42196628437500 
 S -2.75609887812500 1.16125748750001 3.08986128437500 
 S -2.71853187812500 5.15657048750001 2.70717328437500 
 S -3.61246387812500 1.44132948750001 7.13139628437500 
 S -3.47921787812500 5.22155448750001 6.81738828437500 
