16

 C -3.11230008125000 1.36524802812500 5.47592374687500 
 C -3.20430808125000 4.94539802812500 5.59635774687500 
 C -4.36425908125000 0.893167028125002 4.87098774687500 
 C -4.41400608125000 4.60693802812500 4.88629074687500 
 N -2.17993408125000 1.68680202812500 4.57395174687500 
 N -2.22711408125000 5.39897102812500 4.83245874687500 
 N -4.25199508125000 0.680445028125002 3.57771574687500 
 N -4.26227308125000 4.51503802812500 3.58007974687500 
 N -4.78954508125000 1.10894102812500 7.45749674687500 
 N -4.91965508125000 4.84059402812500 7.40288574687500 
 S -5.64697908125000 0.892820028125001 6.07534674687500 
 S -5.69495208125000 4.39621902812500 6.04807174687500 
 S -2.65751008125000 1.04672402812500 3.08359074687500 
 S -2.74491408125000 5.13242202812500 3.22631274687500 
 S -3.20006108125000 1.63047602812500 7.25699674687500 
 S -3.33238108125000 5.07301302812500 7.32284174687500 
