16

 C -2.92048371875000 1.46247111250000 5.36187364062500 
 C -3.28726171875000 5.22950911250000 5.46854464062500 
 C -4.24492171875000 1.05501811250000 4.80969864062500 
 C -4.39419371875000 4.69386311250000 4.73376864062500 
 N -2.03356071875000 1.61258111250000 4.37122364062500 
 N -2.26995971875000 5.55263911250000 4.70187264062500 
 N -4.24249871875000 0.881307112500003 3.46652164062500 
 N -4.22106071875000 4.64091711250000 3.41309564062500 
 N -4.57879571875000 1.15825511250000 7.38473364062500 
 N -5.07387271875000 4.70339111250000 7.22217664062500 
 S -5.44876871875000 0.768100112500003 6.01572164062500 
 S -5.77092471875000 4.34849811250000 5.78585364062500 
 S -2.73041271875000 1.26120611250000 2.91682164062500 
 S -2.63733771875000 5.15125211250000 3.16819664062500 
 S -2.99280371875000 1.60120611250000 7.12109164062500 
 S -3.51830971875000 5.20987111250000 7.18504464062500 
