16

 C -2.90867947500000 1.34927379687500 5.79051716562500 
 C -3.22422047500000 4.94662779687500 5.67746916562500 
 C -4.15831947500000 1.24849579687500 5.18771616562500 
 C -4.47978547500000 4.80952879687500 5.00019316562500 
 N -1.87425847500000 1.43058279687500 5.00042416562500 
 N -2.17110247500000 4.95810979687500 4.83644516562500 
 N -4.06961547500000 1.23176479687500 3.89050816562500 
 N -4.41316647500000 4.75237079687500 3.68081016562500 
 N -4.60710547500000 1.44243879687500 7.66697516562500 
 N -5.06881547500000 4.78854579687500 7.48652716562500 
 S -5.48601147500000 1.25082879687500 6.25793416562500 
 S -5.85671147500000 4.56868379687500 6.00167116562500 
 S -2.45101847500000 1.30864579687500 3.43692616562500 
 S -2.85080347500000 4.86235679687500 3.23857316562500 
 S -2.94925547500000 1.57048679687500 7.47059816562500 
 S -3.41994447500000 5.08751479687500 7.44701916562500 
