16

 C -3.11803801250000 1.37389962500000 5.60826941250000 
 C -3.59644801250000 4.82338862500000 5.06447141250000 
 C -4.37057901250000 0.896957625000002 5.02831841250000 
 C -4.73064401250000 4.22078562500000 4.42627541250000 
 N -2.15253101250000 1.48013762500000 4.65917941250000 
 N -2.62634301250000 5.15281062500000 4.23098841250000 
 N -4.28155401250000 0.567933625000002 3.73182441250000 
 N -4.58722301250000 3.92731162500000 3.14400141250000 
 N -4.77041901250000 0.946353625000002 7.58240741250000 
 N -5.33856501250000 4.48288562500000 6.98209641250000 
 S -5.60843401250000 0.441528625000002 6.20312341250000 
 S -5.97662401250000 3.82072062500000 5.56784141250000 
 S -2.79712901250000 1.06427662500000 3.14787441250000 
 S -3.09208601250000 4.60180462500000 2.70516041250000 
 S -3.27523101250000 1.69414862500000 7.30978641250000 
 S -3.85320801250000 5.28886262500000 6.72773641250000 
