16

 C -3.36323110312500 1.39734407500000 5.51979721250000 
 C -2.97199510312500 5.13536407500000 5.74094121250000 
 C -4.63328710312500 1.11577307500000 4.86989121250000 
 C -4.31212210312500 4.95694007500000 5.21636621250000 
 N -2.30886210312500 1.67828507500000 4.74292221250000 
 N -2.00254410312500 5.20157807500000 4.81103821250000 
 N -4.56321910312500 1.26674107500000 3.53831621250000 
 N -4.39529610312500 4.85987207500000 3.87810521250000 
 N -5.19085210312500 1.37649107500000 7.39577121250000 
 N -4.66410510312500 5.26134007500000 7.69956721250000 
 S -5.92261110312500 0.846164074999998 5.95048321250000 
 S -5.63816110312500 4.97588507500000 6.37481721250000 
 S -2.93887610312500 1.55131207500000 3.20781121250000 
 S -2.80340110312500 5.00634607500000 3.34969121250000 
 S -3.58743110312500 1.75089107500000 7.21419621250000 
 S -3.01950910312500 5.31238507500000 7.52280221250000 
