16

 C -3.16369558125000 1.44188276875000 5.51698521562500 
 C -3.54867858125000 4.91059776875000 5.05976321562500 
 C -4.28583758125000 0.758063768750000 4.97731221562500 
 C -4.69050158125000 4.21154076875000 4.47189821562500 
 N -2.21723958125000 1.77085876875000 4.68010421562500 
 N -2.57220358125000 5.16847776875000 4.18123421562500 
 N -4.17772958125000 0.478848768750000 3.69300121562500 
 N -4.60363458125000 4.01044876875000 3.16861721562500 
 N -4.85450858125000 1.31651976875000 7.44950121562500 
 N -5.42504358125000 4.57240976875000 6.90788421562500 
 S -5.50040758125000 0.444873768750000 6.18157221562500 
 S -6.02848958125000 3.78981076875000 5.50459021562500 
 S -2.69102758125000 1.07180876875000 3.26307321562500 
 S -3.10032858125000 4.59425676875000 2.70068921562500 
 S -3.35234458125000 1.93888776875000 7.12716021562500 
 S -3.85749858125000 5.25993376875000 6.70095821562500 
