16

 C -2.95206519062500 1.48039449375000 5.36459204687500 
 C -3.32360119062500 5.23041149375000 5.94705104687500 
 C -4.15856219062500 1.00133749375000 4.72516704687500 
 C -4.44558819062500 4.87788249375000 5.20805304687500 
 N -1.93487219062500 1.56466549375000 4.50568304687500 
 N -2.19341919062500 5.45035349375000 5.25081804687500 
 N -4.03676019062500 0.834136493749998 3.43948904687500 
 N -4.19254119062500 4.75885549375000 3.88522304687500 
 N -4.84596819062500 1.25712349375000 7.16257204687500 
 N -5.02545819062500 5.05378649375000 7.70921204687500 
 S -5.49685719062500 0.678183493749998 5.72004404687500 
 S -5.79332419062500 4.80812449375000 6.30645104687500 
 S -2.56004419062500 1.21603949375000 2.97243004687500 
 S -2.56361319062500 5.13492349375000 3.68898004687500 
 S -3.26118319062500 1.76111549375000 7.11425204687500 
 S -3.47035019062500 5.52743149375000 7.59613904687500 
