16

 C -3.09995765937500 1.34468001250000 5.51236753125000 
 C -3.64036865937500 4.93881501250000 5.02429753125000 
 C -4.34676565937500 0.850487012499998 5.01423453125000 
 C -4.73001865937500 4.15139901250000 4.47204053125000 
 N -2.09065665937500 1.45124201250000 4.65319853125000 
 N -2.61032765937500 5.17222501250000 4.19997253125000 
 N -4.31717465937500 0.602167012499997 3.70930553125000 
 N -4.54833665937500 3.95619701250000 3.14659553125000 
 N -4.76136865937500 0.845798012499998 7.59432153125000 
 N -5.29968365937500 4.56146901250000 6.99839553125000 
 S -5.62629265937500 0.482232012499997 6.23049553125000 
 S -6.01210565937500 3.81849301250000 5.62075853125000 
 S -2.83531765937500 1.06962301250000 3.20214653125000 
 S -3.04548965937500 4.59712901250000 2.76059853125000 
 S -3.26940065937500 1.54119701250000 7.30658853125000 
 S -3.80953865937500 5.25852301250000 6.72700853125000 
