16

 C -3.03934008750000 1.78314690312500 5.48813354375000 
 C -3.59761208750000 5.29390590312500 5.49960054375000 
 C -4.13726108750000 1.13968990312500 4.79924854375000 
 C -4.66316708750000 4.46145490312500 4.94460854375000 
 N -2.02508408750000 2.08806990312500 4.67795354375000 
 N -2.59214908750000 5.51804490312500 4.65266254375000 
 N -3.90340208750000 0.894504903125002 3.51566754375000 
 N -4.52371808750000 4.24037490312500 3.63056954375000 
 N -4.67667208750000 0.901363903125001 7.26941354375000 
 N -5.24002308750000 4.64131790312500 7.44776054375000 
 S -5.40658308750000 0.576852903125002 5.80202654375000 
 S -5.93813008750000 4.01230390312500 6.08758054375000 
 S -2.39564808750000 1.49614190312500 3.15821354375000 
 S -3.06874008750000 4.94846590312500 3.19033654375000 
 S -3.31089208750000 1.85391490312500 7.16914754375000 
 S -3.81825408750000 5.49825090312500 7.23153854375000 
