16

 C -3.38274709687500 1.45965035937500 5.45573342187500 
 C -3.04575009687500 5.16092135937500 5.86411842187500 
 C -4.63579209687500 1.15375335937500 4.79435542187500 
 C -4.31168209687500 4.93765135937500 5.32109142187500 
 N -2.30579709687500 1.57415135937500 4.69657942187500 
 N -2.09724809687500 5.21772035937500 4.92550442187500 
 N -4.42016509687500 1.15132435937500 3.46534042187500 
 N -4.38135909687500 4.84505535937500 3.97462742187500 
 N -5.06274909687500 1.15807335937500 7.35017842187500 
 N -4.74615509687500 5.12431335937500 7.85279642187500 
 S -5.89462709687500 0.746488359375003 5.96596442187500 
 S -5.59324009687500 5.01984235937500 6.37281642187500 
 S -2.83837109687500 1.57678735937500 3.18049942187500 
 S -2.84634109687500 5.03973535937500 3.43025142187500 
 S -3.50287509687500 1.66438235937500 7.18380242187500 
 S -3.12249009687500 5.36365135937500 7.62095242187500 
