16

 C -2.93834124687500 1.63993292187500 5.77086694687500 
 C -3.14017424687500 5.31577792187500 5.70300994687500 
 C -4.15473824687500 1.38833192187500 5.14161294687500 
 C -4.37149624687500 4.88627892187500 5.09300694687500 
 N -1.94959624687500 1.83842192187500 4.91462194687500 
 N -2.16825624687500 5.39266592187500 4.82404394687500 
 N -4.16381124687500 1.55890192187500 3.81563494687500 
 N -4.36175624687500 4.76456992187500 3.76495294687500 
 N -4.67686024687500 1.63927192187500 7.61070394687500 
 N -4.83545224687500 5.26193792187500 7.64846394687500 
 S -5.47699524687500 1.47378992187500 6.19264294687500 
 S -5.63910824687500 4.81957692187500 6.23910694687500 
 S -2.59863624687500 1.83542892187500 3.40841794687500 
 S -2.83545524687500 5.05691992187500 3.30037594687500 
 S -3.01253524687500 1.79655792187500 7.47338894687500 
 S -3.17301524687500 5.55557992187500 7.43479994687500 
