16

 C -2.82160001250000 1.30308997500000 5.65627385625000 
 C -2.95458501250000 4.84818697500000 5.37706285625000 
 C -4.20445601250000 1.15317397500000 5.23060485625000 
 C -4.20459101250000 4.52196497500000 4.68805785625000 
 N -1.95279501250000 0.932093974999998 4.74591385625000 
 N -1.84552801250000 4.91351697500000 4.65948185625000 
 N -4.32503001250000 0.674979974999999 4.01075485625000 
 N -3.99819801250000 4.28295597500000 3.35964985625000 
 N -4.56732401250000 1.70734997500000 7.72164385625000 
 N -4.66651801250000 4.89939797500000 7.22350585625000 
 S -5.49012901250000 1.41251697500000 6.30415285625000 
 S -5.54709101250000 4.54777497500000 5.89838985625000 
 S -2.88875401250000 0.579180974999999 3.40197685625000 
 S -2.36482901250000 4.51929697500000 3.14940285625000 
 S -2.88437601250000 1.53444697500000 7.43101785625000 
 S -3.03330801250000 4.81645297500000 7.10321985625000 
