16

 C -2.96137640625000 1.20529785000000 5.54683653437500 
 C -2.97947840625000 5.10588985000000 5.66556553437500 
 C -4.10189340625000 0.702337850000003 4.87124853437500 
 C -4.11727340625000 4.46228485000000 5.10726453437500 
 N -1.89579140625000 1.39133785000000 4.77195053437500 
 N -2.02869840625000 5.35093985000000 4.77517353437500 
 N -3.92776540625000 0.350695850000003 3.60250253437500 
 N -4.01777440625000 4.08793385000000 3.84580653437500 
 N -4.86909040625000 1.35983085000000 7.28542853437500 
 N -4.72274340625000 4.82253385000000 7.50981453437500 
 S -5.59380440625000 0.637813850000002 5.95521453437500 
 S -5.48948940625000 4.38751985000000 6.08037153437500 
 S -2.32396240625000 0.779799850000003 3.31523453437500 
 S -2.57106040625000 4.71865185000000 3.34865753437500 
 S -3.25184640625000 1.62038085000000 7.25283553437500 
 S -3.16642840625000 5.36063785000000 7.35656453437500 
