16

 C -3.21946695312500 1.10625589375000 5.52549365312500 
 C -3.36062695312500 4.74918589375000 5.50478965312500 
 C -4.29487395312500 0.615057893750000 4.67535565312500 
 C -4.64557995312500 4.71369389375000 4.89967665312500 
 N -2.12526295312500 1.52213789375000 4.88736065312500 
 N -2.32126795312500 4.75794089375000 4.65588865312500 
 N -4.04723795312500 0.723592893750000 3.36887565312500 
 N -4.58069595312500 4.55087689375000 3.58742965312500 
 N -4.92035695312500 0.195239893750000 7.17677565312500 
 N -4.97937995312500 4.64853989375000 7.41932965312500 
 S -5.66349095312500 5.295989375000021E-002 5.65853865312500 
 S -5.88607695312500 4.60295989375000 6.08132165312500 
 S -2.52573295312500 1.33776789375000 3.31371265312500 
 S -2.97117595312500 4.62702089375000 3.15658665312500 
 S -3.47060295312500 1.01205089375000 7.25493765312500 
 S -3.32779495312500 4.83356289375000 7.26904365312500 
