16

 C -2.89003797500000 1.18380431250000 5.60396607187500 
 C -3.03218197500000 5.16089131250000 5.53801407187500 
 C -4.07112897500000 0.938376312500001 4.88477207187500 
 C -4.26051397500000 4.79405331250000 4.85443507187500 
 N -1.82338997500000 1.18058231250000 4.79573407187500 
 N -1.91098697500000 5.23424331250000 4.86425407187500 
 N -4.00090197500000 0.823583312500000 3.54115007187500 
 N -4.03327097500000 4.66000531250000 3.51648607187500 
 N -4.93566197500000 1.30366731250000 7.22703607187500 
 N -4.81828697500000 5.28643431250000 7.45627307187500 
 S -5.51328697500000 0.913103312500001 5.76895307187500 
 S -5.59535797500000 4.83492131250000 6.03072707187500 
 S -2.44827297500000 0.935144312500000 3.21898807187500 
 S -2.41890497500000 4.91552431250000 3.30639507187500 
 S -3.30273097500000 1.62292131250000 7.28526807187500 
 S -3.18416697500000 5.44959131250000 7.20645107187500 
