16

 C -3.33902673437500 1.11148192812500 5.48995430937500 
 C -3.31012273437500 5.17275792812500 5.28137930937500 
 C -4.51858273437500 0.780459928125001 4.73738930937500 
 C -4.34780073437500 4.45158192812500 4.54921930937500 
 N -2.24742973437500 1.14786592812500 4.73164730937500 
 N -2.31533873437500 5.71079992812500 4.53711930937500 
 N -4.31250673437500 0.690404928125002 3.41129430937500 
 N -4.16373073437500 4.48639192812500 3.22957330937500 
 N -5.15972773437500 0.808138928125001 7.21090530937500 
 N -5.07405273437500 4.64715992812500 7.06289930937500 
 S -5.85843273437500 0.393137928125001 5.76631830937500 
 S -5.55306573437500 3.86730092812500 5.70722530937500 
 S -2.72225173437500 0.934193928125001 3.12238030937500 
 S -2.75213773437500 5.27661392812500 2.97514030937500 
 S -3.55167673437500 1.12623392812500 7.18374630937500 
 S -3.56890673437500 5.33893092812500 6.99042430937500 
