16

 C -3.16164320000000 1.21759972812501 5.20205232187500 
 C -3.12334920000000 5.09308172812501 5.61852932187500 
 C -4.47723120000000 0.906867728125006 4.68883232187500 
 C -4.38730620000000 4.70721672812501 5.06458032187500 
 N -2.10932520000000 1.10577272812501 4.35026432187500 
 N -2.16941620000000 5.30607772812501 4.70872632187500 
 N -4.39375620000000 0.600706728125005 3.36787832187500 
 N -4.47878820000000 4.57165772812501 3.73999332187500 
 N -4.82658420000000 1.61909972812501 7.17350732187500 
 N -4.86934320000000 4.89284272812501 7.60448332187500 
 S -5.69833220000000 0.965258728125006 5.95699432187500 
 S -5.68506520000000 4.47654772812501 6.18275432187500 
 S -2.83770820000000 0.873135728125005 2.92086432187500 
 S -2.97442820000000 4.97748172812501 3.25662632187500 
 S -3.17425820000000 1.72661172812501 6.86682532187500 
 S -3.31900420000000 5.21685972812501 7.38506732187500 
