16

 C -3.00197047812500 1.52906811875000 5.68088301562500 
 C -3.11562147812500 5.18691711875000 5.77528301562500 
 C -4.11433147812500 0.898788118749998 5.04146001562500 
 C -4.34448147812500 4.84848911875000 5.09939001562500 
 N -1.94787447812500 1.75651111875000 4.90396101562500 
 N -2.03843047812500 5.29310311875000 4.99764501562500 
 N -3.97126347812500 0.697349118749998 3.71623201562500 
 N -4.20710447812500 4.87611611875000 3.75253001562500 
 N -4.90455747812500 1.43651311875000 7.52638501562500 
 N -4.89296547812500 5.17983711875000 7.63967401562500 
 S -5.56573347812500 0.764245118749998 6.18936701562500 
 S -5.67919047812500 4.80961911875000 6.17727101562500 
 S -2.42105047812500 1.21458411875000 3.41207401562500 
 S -2.61259347812500 5.08568411875000 3.45381201562500 
 S -3.35329747812500 1.97338511875000 7.36402901562500 
 S -3.27081647812500 5.59041211875000 7.47413601562500 
