16

 C -3.15109883125000 1.41972902812500 5.55872177500000 
 C -3.14956283125000 4.99069902812500 5.19460177500000 
 C -4.37159183125000 0.926553028124999 5.02071377500000 
 C -4.27721683125000 4.27320502812500 4.67172777500000 
 N -2.18949683125000 1.45401602812500 4.66770377500000 
 N -2.18009283125000 5.17514702812500 4.32203377500000 
 N -4.36941783125000 0.766613028125000 3.70723977500000 
 N -4.18085883125000 3.86642302812500 3.40607777500000 
 N -4.82806483125000 1.31176902812500 7.47396977500000 
 N -4.90780583125000 4.97340102812500 6.99960477500000 
 S -5.72551383125000 0.866198028124999 6.07747377500000 
 S -5.65652283125000 4.18684702812500 5.76008377500000 
 S -2.83097883125000 1.01846302812500 3.21773477500000 
 S -2.68888883125000 4.42965302812500 2.94014677500000 
 S -3.21976083125000 1.86268102812500 7.24797177500000 
 S -3.38173383125000 5.56091802812500 6.78310977500000 
