16

 C -3.11946537187500 1.52166718750000 5.66884409062500 
 C -3.00802937187500 4.60034018750000 5.44983109062500 
 C -4.37796737187500 1.08742518750000 5.05644309062500 
 C -4.20280337187500 4.14385418750000 4.84509909062500 
 N -2.06839537187500 1.58023418750000 4.85319309062500 
 N -2.04432237187500 4.81379218750000 4.54626209062500 
 N -4.27877037187500 0.831300187500002 3.73302909062500 
 N -4.13484237187500 3.85071418750000 3.54701009062500 
 N -4.86053437187500 1.36566218750000 7.67326709062500 
 N -4.86052237187500 4.48856918750000 7.30833409062500 
 S -5.66976037187500 1.07284218750000 6.27323909062500 
 S -5.58818737187500 4.11859618750000 5.86681009062500 
 S -2.66435437187500 1.16220218750000 3.39932409062500 
 S -2.59474137187500 4.28524218750000 3.10580309062500 
 S -3.23029937187500 1.68525318750000 7.42255009062500 
 S -3.24581737187500 4.66028618750000 7.18321809062500 
