16

 C -3.06722371875000 1.38720138750001 5.45974987187500 
 C -2.91699671875000 5.17194538750001 5.47305987187500 
 C -4.20979771875000 0.859928387500007 4.76304087187500 
 C -4.19617371875000 4.90744038750001 4.90148487187500 
 N -1.96623871875000 1.59646338750001 4.73941687187500 
 N -1.94046771875000 5.28177138750001 4.61634987187500 
 N -3.95293671875000 0.618096387500007 3.48476687187500 
 N -4.14502271875000 4.67304138750001 3.61644087187500 
 N -4.97929271875000 1.16240638750001 7.18730087187500 
 N -4.63909171875000 5.10630038750001 7.36564487187500 
 S -5.59892971875000 0.606477387500007 5.71262387187500 
 S -5.52217471875000 5.00538238750001 5.98136187187500 
 S -2.35962371875000 1.09047938750001 3.16666087187500 
 S -2.59446471875000 4.89826138750001 3.10408887187500 
 S -3.32319371875000 1.33586638750001 7.18153987187500 
 S -3.07055171875000 5.41281938750001 7.17251887187500 
