16

 C -3.17068575312500 1.45477504375000 5.50633005937500 
 C -3.55660975312500 4.88498204375000 5.05594205937500 
 C -4.28776575312500 0.785555043749999 4.98502705937500 
 C -4.71572375312500 4.24731904375000 4.44831405937500 
 N -2.20342775312500 1.78965804375000 4.66962005937500 
 N -2.58833775312500 5.19184104375000 4.20524605937500 
 N -4.13143875312500 0.440958043749998 3.74043705937500 
 N -4.58126675312500 3.99976004375000 3.16882205937500 
 N -4.86899275312500 1.33987704375000 7.44423605937500 
 N -5.43912675312500 4.60347904375000 6.90833805937500 
 S -5.50644175312500 0.449520043749999 6.18404205937500 
 S -6.03050575312500 3.79246304375000 5.50947405937500 
 S -2.66450075312500 1.08523404375000 3.22800205937500 
 S -3.08486075312500 4.59163904375000 2.69738205937500 
 S -3.36338275312500 1.95859504375000 7.10919705937500 
 S -3.84454775312500 5.25553504375000 6.70012205937500 
