16

 C -3.11900122812500 1.48200853125000 5.30373236250000 
 C -3.17950322812500 5.44743253125000 5.87318536250000 
 C -4.24523922812500 0.903188531250001 4.68501136250000 
 C -4.37652122812500 4.93554853125000 5.20930036250000 
 N -2.05213622812500 1.67673153125000 4.52711036250000 
 N -2.14820422812500 5.58948053125000 5.01292536250000 
 N -4.00704422812500 0.648192531250001 3.39694836250000 
 N -4.16215822812500 4.61188953125000 3.93440136250000 
 N -4.83946522812500 1.43753553125000 7.21057136250000 
 N -5.12362922812500 5.14919953125000 7.57141536250000 
 S -5.59195222812500 0.757668531250001 5.85264036250000 
 S -5.77771422812500 4.63787053125000 6.13861036250000 
 S -2.44295222812500 0.993211531250001 3.06672936250000 
 S -2.63918622812500 5.01092053125000 3.48030436250000 
 S -3.24022122812500 1.87654353125000 6.97248036250000 
 S -3.49602722812500 5.49515153125000 7.61278236250000 
