16

 C -3.31480652500000 1.42788326250000 5.53662477812500 
 C -3.42439252500000 5.09037426250000 5.20376277812500 
 C -4.51157852500000 0.848342262500001 4.94362577812500 
 C -4.62942852500000 4.65259826250000 4.52950677812500 
 N -2.32177652500000 1.59281926250000 4.64527277812500 
 N -2.41365952500000 5.34763926250000 4.37450577812500 
 N -4.46086752500000 0.549294262500001 3.65123977812500 
 N -4.42046352500000 4.33349726250000 3.26955977812500 
 N -5.02645752500000 0.920161262500000 7.51897277812500 
 N -5.10212252500000 4.62179726250000 7.07516577812500 
 S -5.79582852500000 0.658318262500000 6.05226877812500 
 S -5.84320052500000 4.16143826250000 5.65186577812500 
 S -2.94954752500000 1.06440826250000 3.16994477812500 
 S -2.89414552500000 4.81530826250000 2.82934177812500 
 S -3.52269152500000 1.62624726250000 7.26484677812500 
 S -3.57117852500000 5.15591626250000 6.96938777812500 
