16

 C -3.29992459375000 1.40744062187501 5.74356939375000 
 C -2.93149859375000 5.00137862187501 5.60969139375000 
 C -4.59311459375000 1.06573162187501 5.27705139375000 
 C -4.14329959375000 4.67958162187501 4.92786439375000 
 N -2.25172759375000 1.32699162187501 4.92168239375000 
 N -1.86299559375000 5.09093362187501 4.73805339375000 
 N -4.45164759375000 0.590203621875006 4.04750139375000 
 N -4.12651659375000 4.58921562187501 3.59579539375000 
 N -4.72141459375000 1.59652962187501 7.79487739375000 
 N -4.78487959375000 4.72950662187501 7.50487839375000 
 S -5.77067159375000 1.15347862187501 6.60528839375000 
 S -5.49231759375000 4.37507762187500 5.92114639375000 
 S -2.92910559375000 0.830606621875005 3.51938839375000 
 S -2.58129059375000 4.83577562187501 3.21095739375000 
 S -3.13776959375000 1.68977362187501 7.42346539375000 
 S -3.16745459375000 4.95992762187501 7.37724939375000 
