16

 C -3.16880092812500 1.53686769687500 5.65366539062500 
 C -3.28064892812500 4.92030969687500 5.42803539062500 
 C -4.42500092812500 1.27679169687500 5.03652839062500 
 C -4.52926292812500 4.79590869687500 4.72007539062500 
 N -2.18375892812500 1.57182969687500 4.78288539062500 
 N -2.17775292812500 4.85962569687500 4.69476339062500 
 N -4.39629692812500 1.12833969687500 3.71748539062500 
 N -4.37768992812500 4.66565169687500 3.41276039062500 
 N -4.86483592812500 1.56004569687500 7.55813239062500 
 N -5.07301792812500 4.97468769687500 7.19180239062500 
 S -5.71687492812500 1.12517169687500 6.18165039062500 
 S -5.85691592812500 4.58393969687500 5.80727339062500 
 S -2.70545092812500 1.25554169687500 3.22847039062500 
 S -2.69139992812500 4.71804769687500 3.12157139062500 
 S -3.26257792812500 1.84638669687500 7.35051539062500 
 S -3.43731592812500 5.22557269687500 7.09550139062500 
