16

 C -3.05526661249999 1.30047915625000 5.79619693750000 
 C -2.96426361249999 4.83487915625000 5.46063793750000 
 C -4.39029861249999 1.07048415625000 5.29718393750000 
 C -4.22029561249999 4.65207315625000 4.76944793750000 
 N -2.18348861249999 1.05077915625000 4.77313393750000 
 N -1.84140461249999 4.85246915625000 4.68663993750000 
 N -4.54970261249999 0.643244156249999 4.04608793750000 
 N -4.10091661249999 4.68543115625000 3.42676893750000 
 N -4.67653261249999 1.76537715625000 7.72989493750000 
 N -4.60194861249999 4.56741015625000 7.44899193750000 
 S -5.63576661249999 1.21397915625000 6.49607693750000 
 S -5.53388761249999 4.42679515625000 5.96274893750000 
 S -3.06305861249999 0.590638156249998 3.42739993750000 
 S -2.45367561249999 4.75526415625000 3.17256793750000 
 S -3.05241661249999 1.81100415625000 7.47368093750000 
 S -2.97854061249999 4.89412915625000 7.17222293750000 
