16

 C -3.08536385937500 1.28694170625000 5.48890251875000 
 C -2.88495885937500 5.22796570625000 5.50332151875000 
 C -4.21131285937500 0.885838706250001 4.67896351875000 
 C -4.14440785937500 4.92850770625000 4.88716251875000 
 N -1.97616485937500 1.53998770625000 4.77970851875000 
 N -1.89606385937500 5.25450670625000 4.56902151875000 
 N -3.98192085937500 0.716397706250002 3.36156551875000 
 N -4.18958685937500 4.66633970625000 3.59393351875000 
 N -4.96224785937500 1.25720970625000 7.24296251875000 
 N -4.71945785937500 5.13652970625000 7.32804651875000 
 S -5.59989385937500 0.646563706250002 5.78310151875000 
 S -5.45831485937500 4.97501370625000 5.91922051875000 
 S -2.29161585937500 1.06095270625000 3.27826751875000 
 S -2.60288285937500 4.87187670625000 3.12292251875000 
 S -3.29755285937500 1.37290170625000 7.15346051875000 
 S -3.11634585937500 5.44451970625000 7.24309351875000 
