16

 C -3.14893353750000 1.41515664062500 5.39753007187500 
 C -3.24738253750000 5.19366364062500 5.38084007187500 
 C -4.27765253750000 0.826149640624999 4.82259807187500 
 C -4.51933953750000 4.72334064062500 4.88820007187500 
 N -2.05995053750000 1.61988864062500 4.66710207187500 
 N -2.23894653750000 5.12077364062500 4.51254507187500 
 N -4.09996453750000 0.407609640624999 3.57354907187500 
 N -4.48926753750000 4.29536164062500 3.62925607187500 
 N -4.99669753750000 1.44146364062500 7.32035507187500 
 N -4.98788753750000 5.24395064062500 7.33989807187500 
 S -5.64801053750000 0.647773640624999 6.01000507187500 
 S -5.80975853750000 4.68027464062500 6.00359407187500 
 S -2.53664653750000 0.893719640624999 3.15180207187500 
 S -2.96106153750000 4.58610264062500 3.04753307187500 
 S -3.40643253750000 1.89706364062500 7.11247907187500 
 S -3.40504453750000 5.61100664062500 7.05009007187500 
