16

 C -3.18176497812500 1.24327547812500 5.30754911875000 
 C -2.83498697812500 5.30299547812500 5.61215311875000 
 C -4.36805397812500 0.706997478125004 4.63109711875000 
 C -4.16382497812500 5.02011747812500 5.11596711875000 
 N -2.14677897812500 1.63594147812500 4.64674011875000 
 N -1.92105897812500 5.31330047812500 4.62411811875000 
 N -4.13040697812500 0.711745478125003 3.33414111875000 
 N -4.32067497812500 4.91099747812500 3.77294611875000 
 N -4.83206897812500 0.825043478125004 7.18431611875000 
 N -4.65447897812500 4.89921047812500 7.63001011875000 
 S -5.64703497812500 0.289026478125003 5.82277711875000 
 S -5.50149297812500 4.90552247812500 6.16326211875000 
 S -2.58518997812500 1.42123347812500 3.09832511875000 
 S -2.79933697812500 5.02412447812500 3.21360011875000 
 S -3.38145197812500 1.53404447812500 7.03210411875000 
 S -2.99259097812500 5.43917447812500 7.37669911875000 
