16

 C -3.11513954687500 0.912372912500000 5.60401113125000 
 C -3.27270654687500 4.83478591250000 5.26735213125000 
 C -4.33358254687500 0.754839912500000 4.94966213125000 
 C -4.47853554687500 4.30631491250000 4.62272313125000 
 N -2.07988254687500 1.20040491250000 4.74546313125000 
 N -2.30384154687500 5.14884191250000 4.38504113125000 
 N -4.30382554687500 0.706972912499999 3.60287513125000 
 N -4.33198854687500 4.06514791250000 3.32138613125000 
 N -4.94027554687500 0.754742912500000 7.48294813125000 
 N -5.10447554687500 4.72209191250000 7.12351113125000 
 S -5.67871554687500 0.512874912500000 6.02400213125000 
 S -5.85201454687500 4.04665991250000 5.72836513125000 
 S -2.73089754687500 1.01054791250000 3.24280913125000 
 S -2.82530654687500 4.65381591250000 2.91385713125000 
 S -3.27126154687500 0.873561912500000 7.33641813125000 
 S -3.56878954687500 5.30938891250000 6.88795313125000 
