16

 C -3.25974612812500 1.67419180312500 5.75336802500000 
 C -3.15399012812500 5.31326880312500 5.85311502500000 
 C -4.40344912812500 1.16761780312500 5.10652602500000 
 C -4.35417012812500 4.78169180312500 5.21387902500000 
 N -2.16775612812500 1.82347980312500 4.98537602500000 
 N -2.09001812812500 5.46008480312500 5.08114502500000 
 N -4.17976912812500 0.919553803124996 3.79696102500000 
 N -4.18806512812500 4.50848980312500 3.88939502500000 
 N -5.05516712812500 1.18281180312500 7.61933502500000 
 N -4.74042212812500 4.84790580312500 7.73564602500000 
 S -5.70592212812500 0.708647803124997 6.12211502500000 
 S -5.53646012812500 4.38708280312500 6.41483902500000 
 S -2.66906012812500 1.36290080312500 3.46085402500000 
 S -2.61540712812500 4.98547780312500 3.59880002500000 
 S -3.56441312812500 1.89772180312500 7.47342102500000 
 S -3.26038112812500 5.60324680312500 7.54487302500000 
