16

 C -3.07869708437500 1.29593984375000 5.48861476250000 
 C -2.88873908437500 5.22127084375000 5.50089176250000 
 C -4.20972608437500 0.884294843750002 4.67951476250000 
 C -4.14814208437500 4.92897084375000 4.89586876250000 
 N -1.98035308437500 1.54624984375000 4.77849076250000 
 N -1.89968608437500 5.25774984375000 4.57002076250000 
 N -3.98407908437500 0.707138843750002 3.37087576250000 
 N -4.18834208437500 4.66665684375000 3.59817776250000 
 N -4.96458708437500 1.25161184375000 7.24506176250000 
 N -4.70802308437500 5.13387184375000 7.32569876250000 
 S -5.59938608437500 0.642907843750002 5.77665676250000 
 S -5.45794908437500 4.97858984375000 5.92368076250000 
 S -2.29464108437500 1.06303184375000 3.27072776250000 
 S -2.60233308437500 4.87342484375000 3.12071576250000 
 S -3.29922008437500 1.36874884375000 7.15291676250000 
 S -3.11768108437500 5.44134084375000 7.23705376250000 
