16

 C -2.98791068125000 1.64862551562500 5.44979360937500 
 C -3.07782168125000 5.20145751562500 5.66721760937500 
 C -4.26283468125000 1.32024051562500 4.89338060937500 
 C -4.19822768125000 4.64370851562500 4.96527760937500 
 N -2.03633768125000 1.81551951562500 4.55041260937500 
 N -2.02919868125000 5.50932151562500 4.91085360937500 
 N -4.26189468125000 1.14241251562500 3.59825560937500 
 N -4.03297968125000 4.58182151562500 3.65942060937500 
 N -4.47449868125000 1.23116751562500 7.39947860937500 
 N -4.84521668125000 4.79487451562500 7.45780960937500 
 S -5.52120668125000 1.18352651562500 6.06365960937500 
 S -5.62493068125000 4.46328651562500 6.02994360937500 
 S -2.62997468125000 1.31411551562500 3.11099260937500 
 S -2.47125968125000 5.08362251562500 3.39827660937500 
 S -2.85114768125000 1.63796351562500 7.10704260937500 
 S -3.27218668125000 5.33758751562500 7.32164860937500 
