16

 C -3.16939927187500 0.894320615624999 5.43965025312500 
 C -3.24648427187500 4.56817461562500 5.58724025312500 
 C -4.44233927187500 0.603498615624999 4.84161525312500 
 C -4.52633327187500 4.62015661562500 4.93877025312500 
 N -2.24535327187500 1.20547061562500 4.54323825312500 
 N -2.18016627187500 4.53753561562500 4.74338725312500 
 N -4.42456927187500 0.732766615624999 3.52906925312500 
 N -4.42706027187500 4.65933461562500 3.60371425312500 
 N -4.88159627187500 0.425543615624999 7.35743525312500 
 N -4.86564527187500 4.67907461562500 7.53557125312500 
 S -5.72238127187500 0.231629615624999 5.91525425312500 
 S -5.84833927187500 4.61275461562500 6.14523325312500 
 S -2.96351927187500 1.13680361562500 3.02441025312500 
 S -2.84127427187500 4.67914161562500 3.19123425312500 
 S -3.28290127187500 0.890681615624999 7.16853225312500 
 S -3.17655127187500 4.76084661562500 7.27912425312500 
