16

 C -3.19910705625000 1.30429652187500 5.56080109062500 
 C -3.26108405625000 4.87628952187500 5.60760609062500 
 C -4.42390905625000 0.998206521875002 4.86777209062500 
 C -4.50370405625000 4.47329252187500 4.86586909062500 
 N -2.06428105625000 1.44874352187500 4.89389209062500 
 N -2.16258105625000 5.12581352187500 4.81302209062500 
 N -4.20091605625000 0.916499521875003 3.56286809062500 
 N -4.35358605625000 4.43780952187500 3.56902309062500 
 N -4.96770205625000 1.27717152187500 7.35969109062500 
 N -5.28632305625000 4.87353752187500 7.25468109062500 
 S -5.77826605625000 0.867534521875002 6.01382709062500 
 S -5.86887405625000 4.08066452187500 5.82381809062500 
 S -2.54021205625000 1.27146852187500 3.31216109062500 
 S -2.79347605625000 4.85507152187500 3.24219909062500 
 S -3.39229705625000 1.58478252187500 7.28377709062500 
 S -3.65421905625000 5.07035352187500 7.29032409062500 
