16

 C -3.28067409375000 1.30331603437500 5.26697721562500 
 C -3.15174009375000 5.34441003437500 5.55621421562500 
 C -4.53485109375000 0.748857034374999 4.74899221562500 
 C -4.36221009375000 5.08212703437500 4.80381321562500 
 N -2.31328309375000 1.44529103437500 4.35794721562500 
 N -2.06240509375000 5.47409503437500 4.79588121562500 
 N -4.51811009375000 0.611894034374999 3.41386721562500 
 N -4.20454109375000 5.19408703437500 3.46494521562500 
 N -4.97453109375000 1.07012103437500 7.28883921562500 
 N -5.09231209375000 4.98063703437500 7.16369421562500 
 S -5.81739809375000 0.487046034374999 5.90987421562500 
 S -5.78485409375000 5.02111603437500 5.72162921562500 
 S -3.00495309375000 0.916245034374999 2.92732921562500 
 S -2.62185409375000 5.42728203437500 3.20090521562500 
 S -3.45673509375000 1.58184803437500 6.96716421562500 
 S -3.46647709375000 5.14739203437500 7.22198021562500 
