16

 C -3.19281973750000 1.25609283125000 5.39177134375000 
 C -3.25474073750000 5.43045583125000 5.61124634375000 
 C -4.34321873750000 0.614816831250002 4.84026634375000 
 C -4.41861373750000 4.78176683125000 5.02228534375000 
 N -2.14907173750000 1.26242983125000 4.56601234375000 
 N -2.23112073750000 5.55051883125000 4.82272134375000 
 N -4.19583873750000 0.175897831250001 3.59343234375000 
 N -4.17152273750000 4.38411583125000 3.77162934375000 
 N -5.12519573750000 1.48547883125000 7.16941634375000 
 N -4.97159473750000 5.22035483125000 7.54331134375000 
 S -5.68733473750000 0.511296831250002 5.93051134375000 
 S -5.72242973750000 4.58747883125000 6.16021734375000 
 S -2.63560573750000 0.439725831250001 3.22326234375000 
 S -2.59557873750000 4.88559383125000 3.37952334375000 
 S -3.51408373750000 2.01911883125000 6.95303134375000 
 S -3.39123673750000 5.66984383125000 7.26663534375000 
