16

 C -3.21401546875000 1.14553404687500 5.57577873437500 
 C -3.35332746875000 4.85001904687500 5.48958373437500 
 C -4.29762946875000 0.585778046875002 4.75009873437500 
 C -4.65994246875000 4.70115304687500 4.87435873437500 
 N -2.11716646875000 1.50251204687500 4.90610273437500 
 N -2.34787546875000 4.76934404687500 4.65939073437500 
 N -4.05257546875000 0.663946046875002 3.44331373437500 
 N -4.59372946875000 4.62484204687500 3.54401273437500 
 N -4.90822346875000 0.259236046875002 7.14755073437500 
 N -5.00472046875000 4.68677904687500 7.42495673437500 
 S -5.62330746875000 6.489104687500147E-002 5.65711973437500 
 S -5.87686746875000 4.59231404687500 6.03631673437500 
 S -2.55378246875000 1.34428404687500 3.31249773437500 
 S -2.98586246875000 4.61915004687500 3.13103073437500 
 S -3.48654146875000 1.03533204687500 7.22473573437500 
 S -3.34853946875000 4.79569204687500 7.24172673437500 
