16

 C -2.96285632812500 1.59782646875000 5.39519327500000 
 C -3.22055532812500 5.19333246875000 5.59577027500000 
 C -4.24177432812500 1.20185346875000 4.83411927500000 
 C -4.41894332812500 4.77736346875000 4.93173827500000 
 N -1.98044332812500 1.68159446875000 4.46931927500000 
 N -2.18764032812500 5.24331946875000 4.72671127500000 
 N -4.24440332812500 1.05858746875000 3.49432227500000 
 N -4.39088232812500 4.75330446875000 3.59636327500000 
 N -4.63109532812500 1.49964146875000 7.44415527500000 
 N -4.99211232812500 4.61926446875000 7.49562727500000 
 S -5.48341632812500 1.12971146875000 6.04032827500000 
 S -5.71088232812500 4.40102046875000 5.97934727500000 
 S -2.64766832812500 1.20575446875000 3.00821227500000 
 S -2.78735132812500 4.98486546875000 3.24061127500000 
 S -3.03115632812500 1.96554546875000 7.16865427500000 
 S -3.40933132812500 5.16458746875000 7.37620127500000 
