16

 C -2.96791439687500 1.25889542812500 5.69098482812500 
 C -2.91945839687500 4.76163142812500 5.50549182812500 
 C -4.24742039687500 1.19474242812500 5.04863782812500 
 C -4.14521839687500 4.46663642812500 4.76302182812500 
 N -1.86019039687500 1.05434142812500 4.94398282812500 
 N -1.82634939687500 4.65681842812500 4.72988482812500 
 N -4.15311939687500 0.906419428125004 3.77170582812500 
 N -4.04856039687500 4.29292442812500 3.48448982812500 
 N -4.64936139687500 1.38190842812500 7.63164582812500 
 N -4.89528839687500 4.74500142812500 7.18012682812500 
 S -5.52979239687500 1.44825942812500 6.24847682812500 
 S -5.50428139687500 4.40926642812500 5.68343882812500 
 S -2.43158139687500 0.867045428125003 3.39167382812500 
 S -2.40736239687500 4.39736942812500 3.20375682812500 
 S -2.95890139687500 1.62329942812500 7.35975482812500 
 S -3.25685039687500 5.11919942812500 7.20817582812500 
