16

 C -2.78325967500000 1.45910154062500 5.81083880312500 
 C -3.39688567500000 5.44167354062500 5.54918380312500 
 C -4.12734767500000 1.39126654062500 5.17247380312500 
 C -4.62703067500000 4.98470154062500 4.91729780312500 
 N -1.73965967500000 1.55975054062500 4.96915080312500 
 N -2.38874367500000 5.60717354062500 4.71857180312500 
 N -4.07324367500000 1.33936854062500 3.83182680312500 
 N -4.50222267500000 4.71872754062500 3.61418380312500 
 N -4.55107167500000 1.34526254062500 7.69611180312500 
 N -5.09979667500000 5.04215254062500 7.48264280312500 
 S -5.44700167500000 1.36443354062500 6.31217180312500 
 S -5.95941767500000 4.74874654062500 6.08801580312500 
 S -2.49844167500000 1.44708754062500 3.45642580312500 
 S -2.91425967500000 5.15190554062500 3.23184180312500 
 S -2.92470167500000 1.53736554062500 7.56748380312500 
 S -3.43973867500000 5.30098554062500 7.31056980312500 
