16

 C -3.00576331250000 1.41115583125000 5.52418845937500 
 C -3.35956631250000 5.13785883125000 5.16682645937500 
 C -4.15896831250000 1.03818883125000 4.81024845937500 
 C -4.43744431250000 4.36140683125000 4.58067145937500 
 N -1.89984931250000 1.55039683125000 4.78432945937500 
 N -2.26023131250000 5.27697883125000 4.45569445937500 
 N -4.03100831250000 0.817742831249998 3.49224945937500 
 N -4.19039231250000 4.00387183125000 3.33960145937500 
 N -4.99023631250000 1.07682383125000 7.33958645937500 
 N -5.19310631250000 5.06251083125000 6.90286545937500 
 S -5.60727431250000 0.781018831249997 5.79045545937500 
 S -5.73574331250000 4.10124983125000 5.67211645937500 
 S -2.39223531250000 1.13592083125000 3.21712045937500 
 S -2.54089831250000 4.46595883125000 3.05208945937500 
 S -3.44635031250000 1.70510583125000 7.25787045937500 
 S -3.77568631250000 5.85585383125000 6.66207045937500 
