16

 C -3.28703361562500 1.58274617500000 5.49530695312500 
 C -3.14571861562500 5.14221317500000 5.72595695312500 
 C -4.59678061562500 1.24513917500000 4.97884895312500 
 C -4.37219061562500 4.78568717500000 5.08702695312500 
 N -2.31514761562500 1.74722617500000 4.55167895312500 
 N -2.13763561562500 5.51078417500000 4.88833195312500 
 N -4.57287061562500 1.07938517500000 3.65846895312500 
 N -4.30657361562500 4.69836617500000 3.72981895312500 
 N -4.79048961562500 1.08541217500000 7.58562995312500 
 N -4.95590061562500 5.00096317500000 7.54451995312500 
 S -5.82308361562500 0.964228175000001 6.22663395312500 
 S -5.65283061562500 4.32081517500000 6.24446995312500 
 S -3.00235661562500 1.45556617500000 3.08793095312500 
 S -2.74110061562500 5.12492017500000 3.33718295312500 
 S -3.28519661562500 1.64839817500000 7.22897295312500 
 S -3.38523761562500 5.40507017500000 7.39228095312500 
