16

 C -3.23068381250000 1.22049448437500 5.29346446562500 
 C -2.87116681250000 5.08061348437500 5.44331946562500 
 C -4.46609281250000 0.851162484375000 4.65962146562500 
 C -4.07438481250000 4.55845248437500 4.78107746562500 
 N -2.19624981250000 1.21096548437500 4.46398746562500 
 N -1.92342081250000 5.37389548437500 4.57188946562500 
 N -4.41737381250000 0.536249484375000 3.35998146562500 
 N -3.97706981250000 4.25693948437500 3.46840746562500 
 N -5.07335581250000 1.64446948437500 6.98427246562500 
 N -4.80090981250000 5.09721348437500 7.17803346562500 
 S -5.83907881250000 0.962402484375000 5.67512646562500 
 S -5.41624381250000 4.36046848437500 5.84831846562500 
 S -2.83773681250000 0.810231484375000 2.96743646562500 
 S -2.44982381250000 4.83555648437500 3.09464846562500 
 S -3.37325681250000 1.62224048437500 6.99741746562500 
 S -3.20039881250000 5.58024348437500 7.06166246562500 
