16

 C -3.11741929062500 1.23162865000000 5.67288411875000 
 C -2.99625129062500 5.13357265000000 5.51816711875000 
 C -4.44020429062500 1.12236565000000 4.96123311875000 
 C -4.24110529062500 4.83487165000000 4.85353611875000 
 N -2.07050329062500 1.57030365000000 4.88995611875000 
 N -1.98801429062500 5.33469765000000 4.67787511875000 
 N -4.33524329062500 1.29095965000000 3.67142911875000 
 N -4.15655529062500 4.68603965000000 3.55841911875000 
 N -5.04000429062500 1.01855365000000 7.37513611875000 
 N -4.92660029062500 5.09622565000000 7.37732911875000 
 S -5.85971929062500 0.966654650000000 5.92343811875000 
 S -5.58393229062500 4.62579865000000 5.87957911875000 
 S -2.76819029062500 1.64921765000000 3.31701411875000 
 S -2.64506129062500 5.16527065000000 3.12524311875000 
 S -3.37257129062500 1.28304865000000 7.39259911875000 
 S -3.33459029062500 5.53732465000000 7.15955011875000 
