16

 C -3.16103457187500 1.20039512187500 5.70573118125000 
 C -3.13278457187500 5.08373912187500 5.54505818125000 
 C -4.42002557187500 0.843662121875000 5.17603318125000 
 C -4.35831757187500 4.60321012187500 5.00036418125000 
 N -2.10110957187500 1.17893412187500 4.88741018125000 
 N -2.12157357187500 5.30658412187500 4.72227518125000 
 N -4.38216257187500 0.592260121875000 3.85458818125000 
 N -4.29615357187500 4.49911712187500 3.69926818125000 
 N -4.89097257187500 1.52956112187500 7.70608418125000 
 N -4.91678757187500 5.04572512187500 7.44925718125000 
 S -5.81289057187500 1.17876312187500 6.28766018125000 
 S -5.68232657187500 4.55944612187500 6.12116618125000 
 S -2.80946857187500 0.877200121875000 3.35997718125000 
 S -2.83280957187500 5.06748612187500 3.19488418125000 
 S -3.22800057187500 1.60972312187500 7.45294918125000 
 S -3.36414157187500 5.44946312187500 7.24356518125000 
