16

 C -3.39790615312500 1.33300180312500 5.45225290000000 
 C -3.16450115312500 5.26895480312500 5.82523590000000 
 C -4.59325615312500 0.838301803125000 4.73001090000000 
 C -4.37264315312500 4.75516680312500 5.20335990000000 
 N -2.33395515312500 1.53002880312500 4.70738490000000 
 N -2.21818615312500 5.58709480312500 4.98655290000000 
 N -4.40842115312500 0.688928803124999 3.43127390000000 
 N -4.34574315312500 4.75188480312500 3.88095490000000 
 N -5.17851915312500 0.921922803125000 7.31803090000000 
 N -4.90761315312500 4.62539580312500 7.72471690000000 
 S -5.88684315312500 0.373421803124999 5.94170790000000 
 S -5.73286815312500 4.34777280312500 6.24445090000000 
 S -2.87063015312500 1.20857180312500 3.11043890000000 
 S -2.81201415312500 5.34926580312500 3.47566790000000 
 S -3.54897315312500 1.19498580312500 7.18413790000000 
 S -3.35604415312500 5.28270180312500 7.52409290000000 
