16

 C -3.16811497187500 1.56578377812500 5.43811241875000 
 C -2.99111997187500 5.10384577812500 5.54586041875000 
 C -4.46979997187500 1.45014977812500 4.78227641875000 
 C -4.25741497187500 4.87246777812500 4.90163441875000 
 N -2.10497597187500 1.51885977812500 4.62494141875000 
 N -2.00295997187500 5.25114177812500 4.64864441875000 
 N -4.39820797187500 1.53933177812500 3.44702241875000 
 N -4.26261697187500 4.97201077812500 3.55630741875000 
 N -4.85731497187500 1.51109577812500 7.41302241875000 
 N -4.75938697187500 4.61147477812500 7.40747941875000 
 S -5.75955197187500 1.39397177812500 6.05758941875000 
 S -5.53285797187500 4.38846477812500 5.96117141875000 
 S -2.82392197187500 1.70225977812500 3.10560541875000 
 S -2.73651197187500 5.29245177812500 3.15267741875000 
 S -3.22902197187500 1.67009577812500 7.19664141875000 
 S -3.10889897187500 5.02005377812500 7.30621341875000 
