16

 C -3.09757619375000 1.09159796250000 5.42038153125000 
 C -3.12007819375000 4.77918796250000 5.52933753125000 
 C -4.28831619375000 0.607118962499998 4.78313853125000 
 C -4.43560519375000 4.73124496250000 4.92529053125000 
 N -2.11503519375000 1.42890296250000 4.56943253125000 
 N -2.13368919375000 4.61147096250000 4.61434253125000 
 N -4.26459919375000 0.561692962499997 3.46972553125000 
 N -4.42772619375000 4.52996696250000 3.59535653125000 
 N -4.85639419375000 0.584322962499997 7.29508453125000 
 N -4.80648619375000 5.01238696250000 7.38724953125000 
 S -5.59911419375000 0.240470962499997 5.84620353125000 
 S -5.74245919375000 4.88045696250000 6.02323953125000 
 S -2.70986319375000 1.02731496250000 3.06308053125000 
 S -2.79661919375000 4.43119996250000 3.12187253125000 
 S -3.25933719375000 0.978883962499998 7.21707653125000 
 S -3.17841919375000 4.84476196250000 7.24822153125000 
