16

 C -3.04115408437500 1.62078471562500 5.38010658437500 
 C -3.24400408437500 5.13901371562500 5.56654258437500 
 C -4.34201208437500 1.07963071562500 4.86368858437500 
 C -4.45845808437500 4.72121771562500 4.93115058437500 
 N -1.98837708437500 1.62249971562500 4.58658458437500 
 N -2.19469208437500 5.34453171562500 4.77778958437500 
 N -4.24011208437500 0.720243715624997 3.59850858437500 
 N -4.33626508437500 4.68817571562500 3.60227058437500 
 N -4.63642008437500 1.17016271562500 7.35724558437500 
 N -4.98440708437500 4.83058071562500 7.43887658437500 
 S -5.59826308437500 1.04033671562500 6.03382358437500 
 S -5.80182208437500 4.32686671562500 6.02028958437500 
 S -2.70302008437500 1.14900271562500 3.14442858437500 
 S -2.72741408437500 5.05547471562500 3.25096058437500 
 S -3.09661608437500 1.76746971562500 7.09103058437500 
 S -3.33184608437500 5.06386371562500 7.28874258437500 
