16

 C -3.37938294375000 1.56893696875000 5.47873161250000 
 C -3.13104094375000 5.50156496875000 5.62478861250000 
 C -4.46946994375000 0.934041968750001 4.81547361250000 
 C -4.26976994375000 4.87212396875000 5.00940061250000 
 N -2.32088794375000 1.73968696875000 4.66546661250000 
 N -2.13721794375000 5.82083996875000 4.78275661250000 
 N -4.29862094375000 0.731718968750000 3.48069961250000 
 N -4.21017594375000 4.88211796875000 3.64772061250000 
 N -5.24437794375000 1.26477396875000 7.21062161250000 
 N -4.76781994375000 5.11263696875000 7.49784361250000 
 S -5.91549894375000 0.728666968750001 5.78584161250000 
 S -5.54389994375000 4.62123896875000 6.11683761250000 
 S -2.66300394375000 1.14366496875000 3.16797161250000 
 S -2.71620294375000 5.47042396875000 3.26153961250000 
 S -3.69617394375000 1.89655996875000 7.17146361250000 
 S -3.19554294375000 5.61162496875000 7.36611461250000 
