16

 C -3.13218744687500 1.42115478125000 5.56392636250000 
 C -3.17753644687500 5.02540078125000 5.18680436250000 
 C -4.38911844687500 0.908381781249999 5.00817636250000 
 C -4.29480044687500 4.27056978125000 4.66983336250000 
 N -2.17443244687500 1.45912978125000 4.66894636250000 
 N -2.17766144687500 5.14943178125000 4.32440836250000 
 N -4.35319844687500 0.755219781249999 3.68893236250000 
 N -4.18489944687500 3.87918578125000 3.39561536250000 
 N -4.80397344687500 1.29915878125000 7.47540536250000 
 N -4.89526444687500 4.99623278125000 7.01308336250000 
 S -5.70419944687500 0.868182781249999 6.09973836250000 
 S -5.65618344687500 4.19895078125000 5.76272936250000 
 S -2.81026844687500 1.00522978125000 3.22106936250000 
 S -2.67061444687500 4.41183878125000 2.95056436250000 
 S -3.22518644687500 1.86032578125000 7.24652936250000 
 S -3.36491144687500 5.55150178125000 6.79599336250000 
