16

 C -3.11750265937500 1.15567891875000 5.76297454687500 
 C -3.21525765937500 5.00049691875000 5.52824054687500 
 C -4.35190665937500 0.884309918749997 5.20320754687500 
 C -4.45991565937500 4.56790091875000 4.94924654687500 
 N -2.11533365937500 1.18032791875000 4.92293354687500 
 N -2.19508165937500 5.14999591875000 4.72193754687500 
 N -4.32884465937500 0.594063918749997 3.90405454687500 
 N -4.39038765937500 4.51311891875000 3.61926954687500 
 N -4.75080765937500 1.47052391875000 7.59233654687500 
 N -4.82286565937500 5.01336691875000 7.51066254687500 
 S -5.65052165937500 1.10457391875000 6.29444654687500 
 S -5.73850965937500 4.51973991875000 6.11995554687500 
 S -2.72112865937500 0.730835918749997 3.52678454687500 
 S -2.80297165937500 4.89699291875000 3.21019154687500 
 S -3.14422065937500 1.75166391875000 7.37088454687500 
 S -3.20278765937500 5.46255491875000 7.26259354687500 
