16

 C -2.97478819062500 1.38181431875000 5.39615138750000 
 C -3.19093319062500 5.23865031875000 5.98869938750000 
 C -4.17833119062500 0.920076318749998 4.71635038750000 
 C -4.41525019062500 4.88013331875000 5.23674538750000 
 N -1.99182119062500 1.69833731875000 4.57354838750000 
 N -2.09085519062500 5.39145931875000 5.27208238750000 
 N -4.10755919062500 0.867713318749998 3.39315438750000 
 N -4.20891319062500 4.80093631875000 3.94516238750000 
 N -4.85502019062500 1.17569431875000 7.20351838750000 
 N -5.04633319062500 5.03994531875000 7.78852938750000 
 S -5.53936019062500 0.673481318749998 5.77339638750000 
 S -5.84163819062500 4.83718731875000 6.30157638750000 
 S -2.50597719062500 1.29646031875000 2.96622538750000 
 S -2.63087419062500 5.13768431875000 3.67741838750000 
 S -3.23785419062500 1.69444531875000 7.07340538750000 
 S -3.43776019062500 5.54224831875000 7.67813738750000 
