16

 C -2.81184740625000 1.90640443437500 5.51895500937500 
 C -3.13858240625000 5.27865943437500 5.67555300937500 
 C -4.10635540625000 1.48718543437500 4.98828700937500 
 C -4.35590540625000 4.74132943437500 5.12993800937500 
 N -1.79068540625000 1.95013143437500 4.60307800937500 
 N -2.12906940625000 5.37928843437500 4.76778700937500 
 N -4.11214740625000 1.17876643437500 3.68332100937500 
 N -4.35263140625000 4.54328943437500 3.82325400937500 
 N -4.50047240625000 1.49053543437500 7.55026800937500 
 N -4.94717740625000 5.08505543437500 7.60322300937500 
 S -5.41574540625000 1.53148143437500 6.14478600937500 
 S -5.74960440625000 4.67630243437500 6.16888700937500 
 S -2.60695940625000 1.56215243437500 3.14507100937500 
 S -2.80004240625000 4.89406043437500 3.30518400937500 
 S -2.88871640625000 1.95813943437500 7.29881600937500 
 S -3.28201940625000 5.32246843437500 7.43748700937500 
