16

 C -3.20733299687500 0.882599021874999 5.49213292187500 
 C -3.23464799687500 4.93989302187500 5.70919392187500 
 C -4.41350599687500 0.564828021874999 4.69229792187500 
 C -4.45251799687500 4.47386402187500 5.09785992187500 
 N -2.22384799687500 1.33853302187500 4.75821392187500 
 N -2.22726199687500 4.98125102187500 4.83146992187500 
 N -4.28436999687500 0.841680021874999 3.38647492187500 
 N -4.40900799687500 4.39192502187500 3.75786592187500 
 N -5.07748099687500 0.593996021874999 7.18165992187500 
 N -4.98000499687500 4.93637602187500 7.57552892187500 
 S -5.80119099687500 0.196483021874999 5.69492392187500 
 S -5.79614999687500 4.27349002187500 6.24887992187500 
 S -2.70850699687500 1.33657602187500 3.15556892187500 
 S -2.85742199687500 4.73309202187500 3.31378192187500 
 S -3.44229599687500 0.787037021874999 7.23553492187500 
 S -3.25821799687500 4.99161902187500 7.41310292187500 
