16

 C -3.22778623125000 1.25481479062500 5.71399161875000 
 C -3.17236723125000 5.26009979062500 5.56944561875000 
 C -4.48113223125000 1.07174779062500 5.09891561875000 
 C -4.38319023125000 4.80314679062500 4.93095561875000 
 N -2.18277423125000 1.31309279062500 4.88277961875000 
 N -2.23155023125000 5.60489879062500 4.68532561875000 
 N -4.47410923125000 0.816388790624999 3.80255761875000 
 N -4.26449623125000 4.56769979062500 3.63792761875000 
 N -4.94137523125000 1.42214779062500 7.60840261875000 
 N -5.00059223125000 5.05431179062500 7.42918161875000 
 S -5.76389523125000 1.11689779062500 6.19541261875000 
 S -5.70744623125000 4.51258279062500 5.96882161875000 
 S -2.88068323125000 0.947534790624998 3.37454161875000 
 S -2.72002723125000 5.06107879062500 3.21148561875000 
 S -3.31543223125000 1.47016479062500 7.46915961875000 
 S -3.28600823125000 5.43721879062500 7.34697361875000 
