16

 C -2.91995371875000 1.37694977812500 5.73790873437500 
 C -3.12444471875000 5.12454277812500 5.48057773437500 
 C -4.21909171875000 1.02686477812500 5.16067573437500 
 C -4.43740671875000 4.85211277812500 4.94830173437500 
 N -1.90372771875000 1.14251177812500 4.87573273437500 
 N -2.08458071875000 5.12188177812500 4.57768473437500 
 N -4.10679671875000 0.526094778124999 3.93847573437500 
 N -4.38174371875000 4.43614977812500 3.67892273437500 
 N -4.73997471875000 1.49979677812500 7.70062473437500 
 N -4.84229371875000 4.98158977812500 7.53473973437500 
 S -5.53470171875000 0.929070778124998 6.35643773437500 
 S -5.65538171875000 4.52130577812500 6.11723373437500 
 S -2.51532771875000 0.574357778124999 3.43923373437500 
 S -2.81347871875000 4.56624477812500 3.18570673437500 
 S -3.10237971875000 1.87844677812500 7.44900973437500 
 S -3.25107071875000 5.26582677812500 7.22534873437500 
