16

 C -3.27823064687500 1.58632068437500 5.47947085937500 
 C -3.18248464687500 5.15422868437500 5.70436485937500 
 C -4.60162464687500 1.26658068437500 4.96811885937500 
 C -4.44116564687500 4.78765868437500 5.07571785937500 
 N -2.29430664687500 1.73195968437500 4.57140285937500 
 N -2.16991564687500 5.53703468437500 4.86892485937500 
 N -4.57348364687500 1.06727768437500 3.68041985937500 
 N -4.32192964687500 4.67694868437500 3.74245385937500 
 N -4.81748164687500 1.07456268437500 7.57863285937500 
 N -4.96367864687500 4.96944168437500 7.55608085937500 
 S -5.82549564687500 0.954012684375001 6.23185285937500 
 S -5.66674064687500 4.31076068437500 6.24049285937500 
 S -3.00553764687500 1.47456068437500 3.12212985937500 
 S -2.74879764687500 5.15058068437500 3.33379085937500 
 S -3.28304964687500 1.63753368437500 7.20947285937500 
 S -3.40781564687500 5.40056968437500 7.41157885937500 
