16

 C -3.19230621250000 1.43118668125000 5.56523379687500 
 C -3.56990621250000 4.91532168125000 5.01960879687500 
 C -4.31141921250000 0.683214681250001 4.97688079687500 
 C -4.65483421250000 4.14592468125000 4.49306179687500 
 N -2.20468321250000 1.68735768125000 4.68022779687500 
 N -2.56506521250000 5.11154568125000 4.16040179687500 
 N -4.29271421250000 0.567409681250001 3.61479279687500 
 N -4.60909121250000 4.02671268125000 3.17806279687500 
 N -4.80809921250000 1.20907068125000 7.46505579687500 
 N -5.33387221250000 4.50958368125000 6.87586579687500 
 S -5.50643921250000 0.437563681250001 6.17325679687500 
 S -5.99693621250000 3.80763568125000 5.51757779687500 
 S -2.74694721250000 1.04457968125000 3.29483479687500 
 S -3.14288021250000 4.59870268125000 2.71493079687500 
 S -3.31094821250000 1.88713868125000 7.22618079687500 
 S -3.91035121250000 5.26951668125000 6.73235979687500 
