16

 C -3.50251402812499 1.80427003437500 5.58819859375000 
 C -2.86748002812499 5.16744703437500 5.56492159375000 
 C -4.65270702812499 1.24683703437500 4.93245259375000 
 C -4.18895702812499 4.92328003437500 4.97551659375000 
 N -2.43905302812499 2.08720003437500 4.83478659375000 
 N -1.89559702812499 5.22799603437500 4.63437859375000 
 N -4.45438902812499 1.02410303437500 3.62949359375000 
 N -4.24607502812499 4.77468403437500 3.67317059375000 
 N -5.09799802812499 1.32201903437500 7.43869059375000 
 N -4.68980702812499 4.91827703437500 7.49744859375000 
 S -6.00828902812499 1.16898603437500 6.06306559375000 
 S -5.51425702812499 4.87453503437500 6.05892559375000 
 S -2.80214002812499 1.41115103437500 3.34122059375000 
 S -2.73324102812499 4.96169403437500 3.13769859375000 
 S -3.55798002812499 1.82677103437500 7.25552359375000 
 S -3.00475502812499 5.28785303437500 7.30596859375000 
