16

 C -3.24005285000000 1.03607721250000 5.53979760624999 
 C -3.18245685000000 5.09485221250000 5.73599760624999 
 C -4.48454685000000 0.821886212500002 4.87482660624999 
 C -4.38507485000000 4.54494921250000 5.08856960624999 
 N -2.22977285000000 1.23222421250000 4.71763060624999 
 N -2.21610385000000 5.47049021250000 4.87224460624999 
 N -4.40988985000000 0.794989212500002 3.55535360624999 
 N -4.21524585000000 4.29229421250000 3.77568560624999 
 N -5.01708585000000 0.509980212500002 7.33787660624999 
 N -4.84269185000000 4.42285921250000 7.54729160624999 
 S -5.81460885000000 0.512647212500002 5.85083560624999 
 S -5.73678085000000 4.16705221250000 6.16008060624999 
 S -2.79487185000000 0.947573212500002 3.16692260624999 
 S -2.76304985000000 4.98776921250000 3.36502860624999 
 S -3.40601385000000 0.952360212500002 7.31438860625000 
 S -3.46721585000000 5.31783621250000 7.43225360625000 
