16

 C -3.24000012187500 1.41964140312500 5.77894532500000 
 C -3.31259712187500 5.12608540312500 5.42474832500000 
 C -4.43943612187500 0.940441403125000 5.01317432500000 
 C -4.54974512187500 4.79273140312500 4.75922032500000 
 N -2.16833312187500 1.63506440312500 5.00632932500000 
 N -2.29770412187500 5.32187440312500 4.57841032500000 
 N -4.19033712187500 0.681510403124999 3.74115632500000 
 N -4.48097512187500 4.62512640312500 3.45141732500000 
 N -5.26754312187500 1.08830440312500 7.35802732500000 
 N -5.09023212187500 4.91384240312500 7.26085432500000 
 S -5.83248912187500 0.568004403124999 5.86732632500000 
 S -5.82640712187500 4.39658440312500 5.87035032500000 
 S -2.65127612187500 1.16595840312500 3.46384732500000 
 S -2.95549412187500 5.11177840312500 3.03667932500000 
 S -3.64350412187500 1.58826040312500 7.41919732500000 
 S -3.43829912187500 5.29987340312500 7.17831332500000 
