16

 C -3.00884629062500 1.57161058750000 5.68183951562500 
 C -3.09775829062500 5.21731858750000 5.77537151562500 
 C -4.12260329062500 0.885708587500002 5.05455951562500 
 C -4.31896329062500 4.86115858750000 5.11123751562500 
 N -1.96584229062500 1.74115958750000 4.88527651562500 
 N -2.03626629062500 5.30598158750000 4.96492951562500 
 N -3.93987229062500 0.662041587500002 3.73284151562500 
 N -4.20847829062500 4.85104158750000 3.76520351562500 
 N -4.90583629062500 1.43263758750000 7.54239751562500 
 N -4.88740229062500 5.19398758750000 7.61557851562500 
 S -5.56428729062500 0.772992587500002 6.20282551562500 
 S -5.68534629062500 4.81790558750000 6.17964951562500 
 S -2.39231129062500 1.22079758750000 3.40490851562500 
 S -2.62839829062500 5.06953558750000 3.44929451562500 
 S -3.35104129062500 1.98360158750000 7.35710451562500 
 S -3.28673129062500 5.58962958750000 7.45998751562500 
