16

 C -3.22526192812500 1.34290700625000 5.28058072812500 
 C -3.12172392812500 5.02163300625000 5.39053672812500 
 C -4.50353892812500 0.909971006249999 4.71140172812500 
 C -4.38042192812500 5.00998400625000 4.63581972812500 
 N -2.26897692812500 1.64620200625000 4.37951472812500 
 N -2.06913892812500 5.14480200625000 4.61771572812500 
 N -4.41547292812500 0.826158006249999 3.38996772812500 
 N -4.29614292812500 5.22712800625000 3.33800272812500 
 N -5.03179092812500 1.22867800625000 7.19548172812500 
 N -4.86442692812500 4.74311600625000 7.20448572812500 
 S -5.82569192812500 0.665917006249999 5.87230972812500 
 S -5.70268892812500 4.92233500625000 5.81021172812500 
 S -2.84542092812500 1.23658900625000 2.90930372812500 
 S -2.62760092812500 5.32222400625000 3.09497772812500 
 S -3.39669892812500 1.55959700625000 6.97984572812500 
 S -3.28372292812500 4.99430300625000 7.10032572812500 
