16

 C -3.33595813125000 1.30525697500000 5.54613875312500 
 C -3.36870513125000 4.84468897500000 5.23980275312500 
 C -4.44731513125000 0.696409974999998 4.92510575312500 
 C -4.60753213125000 4.42272797500000 4.64236875312500 
 N -2.32371813125000 1.55323597500000 4.72982675312500 
 N -2.34838613125000 5.15569997500000 4.45365275312500 
 N -4.36316913125000 0.603635974999999 3.59510775312500 
 N -4.52140713125000 4.46819697500000 3.31930475312500 
 N -5.03335113125000 0.940931974999998 7.36847175312500 
 N -5.13581813125000 4.59071297500000 7.11528575312500 
 S -5.78451513125000 0.337878974999998 6.02440975312500 
 S -6.00092313125000 4.41856997500000 5.70861675312500 
 S -2.79816913125000 1.12968497500000 3.19292575312500 
 S -2.99048113125000 4.96305797500000 2.91077575312500 
 S -3.47811713125000 1.50747097500000 7.26749075312500 
 S -3.54748413125000 5.00769497500000 6.96912575312500 
