16

 C -3.07815089687500 1.49711409687500 5.30865555937500 
 C -3.22524689687500 5.22111009687500 5.71258955937500 
 C -4.21342289687500 0.704656096875000 4.86927255937500 
 C -4.42757389687500 4.68697009687500 5.07488755937500 
 N -2.12442989687500 1.64182309687500 4.39766355937500 
 N -2.15563489687500 5.40012009687500 4.94746955937500 
 N -4.13007489687500 0.165945096875000 3.65904055937500 
 N -4.21582589687500 4.46432409687500 3.77212255937500 
 N -4.96905489687500 1.45695909687500 7.16783455937500 
 N -4.95261989687500 5.01786009687500 7.56892055937500 
 S -5.63374289687500 0.798378096875000 5.81153655937500 
 S -5.84304689687500 4.55580809687500 6.20411655937500 
 S -2.64954289687500 0.723905096875001 3.10385155937500 
 S -2.59901789687500 5.00930709687500 3.42458855937500 
 S -3.40708589687500 2.05541809687500 7.02152055937500 
 S -3.47579189687500 5.72713509687500 7.34672955937500 
