16

 C -3.27601913750000 1.58758574062500 5.47640093437500 
 C -3.18951913750000 5.16170774062500 5.69771693437500 
 C -4.59973813750000 1.26883874062500 4.96821693437500 
 C -4.45194413750000 4.78458774062500 5.07014293437500 
 N -2.29291813750000 1.72906174062500 4.57892093437500 
 N -2.17959013750000 5.53878674062500 4.86583093437500 
 N -4.57310613750000 1.06572374062500 3.68100193437500 
 N -4.32416013750000 4.67320174062500 3.74637493437500 
 N -4.82373413750000 1.07257674062500 7.57462693437500 
 N -4.96647813750000 4.96305074062500 7.55995293437500 
 S -5.82482313750000 0.952166740624999 6.23241593437500 
 S -5.66986313750000 4.30907174062500 6.23794293437500 
 S -3.00765013750000 1.47754674062500 3.12874193437500 
 S -2.75129313750000 5.15538274062500 3.33378493437500 
 S -3.28199413750000 1.63555774062500 7.20651593437500 
 S -3.41081213750000 5.40004274062500 7.41583793437500 
