16

 C -3.08194896875000 0.932873050000000 5.46792349375000 
 C -3.02041796875000 4.96197605000000 5.52000149375000 
 C -4.28399696875000 0.590131050000000 4.72115749375000 
 C -4.29448696875000 4.74215005000000 4.86679449375000 
 N -1.96634196875000 1.09368405000000 4.77328849375000 
 N -2.00122796875000 4.96194705000000 4.65649449375000 
 N -4.03548796875000 0.563272050000000 3.41754149375000 
 N -4.27933296875000 4.46574105000000 3.60020249375000 
 N -4.97001796875000 0.888570050000000 7.24575549375000 
 N -4.89714996875000 5.05395605000000 7.39188849375000 
 S -5.64982396875000 0.422347050000000 5.76471549375000 
 S -5.67656996875000 4.94052205000000 5.93114049375000 
 S -2.40606496875000 0.855041050000000 3.17648749375000 
 S -2.72732096875000 4.62354605000000 3.14743249375000 
 S -3.33473296875000 1.29787705000000 7.12938249375000 
 S -3.19092896875000 5.21450205000000 7.29955149375000 
