16

 C -3.12914532812500 1.34841229062500 5.26461402187500 
 C -3.02179132812500 4.92935329062500 5.53784702187500 
 C -4.24006732812500 0.670233290625004 4.68599602187500 
 C -4.33165132812500 4.67367729062500 5.04081702187500 
 N -2.21269532812500 1.73582929062500 4.38830102187500 
 N -2.00671732812500 5.00439029062500 4.66622202187500 
 N -4.08055832812500 0.389562290625003 3.39433302187500 
 N -4.30724632812500 4.55090629062500 3.71521902187500 
 N -4.91937132812500 0.990890290625003 7.16703602187500 
 N -4.64285732812500 4.86662129062500 7.62072802187500 
 S -5.54493932812500 0.280640290625003 5.79316802187500 
 S -5.54926532812500 4.40010429062500 6.28628002187500 
 S -2.62321432812500 1.06325829062500 2.93440302187500 
 S -2.76101932812500 4.77444129062500 3.21239802187500 
 S -3.39068832812500 1.60186429062500 7.03715602187500 
 S -3.00573932812500 5.05380029062500 7.24530302187500 
