16

 C -2.84931249687500 1.27878986875001 5.76495203437500 
 C -3.05596249687500 4.65332386875001 5.49162403437500 
 C -4.09483749687500 1.09004086875001 5.09913503437500 
 C -4.25177649687500 4.33611986875001 4.75409203437500 
 N -1.77569149687500 1.28067486875001 4.95589103437500 
 N -1.86985349687500 4.70633886875001 4.87943103437500 
 N -4.03628049687500 1.08810286875001 3.75149003437500 
 N -3.96065349687500 4.17115886875001 3.43682503437500 
 N -4.88571449687500 1.62214286875001 7.48909703437500 
 N -5.03470849687500 4.90849486875001 7.14418603437500 
 S -5.48949649687500 1.22927986875001 5.97309503437500 
 S -5.75823149687500 4.33704386875001 5.83137503437500 
 S -2.43600949687500 1.10357886875001 3.39692603437500 
 S -2.26961149687500 4.38687786875001 3.30128403437500 
 S -3.14077449687500 1.57145486875001 7.52939803437500 
 S -3.37567749687500 5.07413686875001 7.16946603437500 
