16

 C -3.08185290625000 1.28559973437500 5.72960524375000 
 C -3.03061690625000 4.62847673437500 5.40205724375000 
 C -4.40191090625000 0.876476734374998 5.09673524375000 
 C -4.26817790625000 4.17815173437500 4.79767824375000 
 N -2.07979590625000 1.31448773437500 4.85745224375000 
 N -1.95691890625000 4.70984173437500 4.60797624375000 
 N -4.35033190625000 0.691639734374998 3.77095024375000 
 N -4.09925590625000 3.93338973437500 3.49206024375000 
 N -4.83926790625000 1.12246173437500 7.64135224375000 
 N -4.88357890625000 4.73876173437500 7.25379824375000 
 S -5.70194390625000 0.796357734374998 6.23840324375000 
 S -5.60326790625000 4.01597573437500 5.91800124375000 
 S -2.78186590625000 0.944304734374997 3.41237224375000 
 S -2.49123090625000 4.31568173437500 3.11298524375000 
 S -3.21273990625000 1.62592373437500 7.44487024375000 
 S -3.29319690625000 5.03505373437500 7.06394124375000 
