16

 C -3.01015449062500 1.47044497500000 5.75738280312500 
 C -3.10216149062500 5.14102797500000 5.83759280312500 
 C -4.22443049062500 0.986029974999997 5.08130580312500 
 C -4.32404649062500 4.94068597500000 5.10209080312500 
 N -2.01598749062500 1.69597897500000 4.95049080312500 
 N -2.04331049062500 5.25750597500000 5.05313580312500 
 N -4.08548449062500 0.835992974999997 3.78156980312500 
 N -4.20579549062500 4.88176997500000 3.76000080312500 
 N -4.91697749062500 1.41706797500000 7.45350680312500 
 N -4.87794549062500 5.12614297500000 7.62058980312500 
 S -5.53704749062500 0.718627974999997 6.04665380312500 
 S -5.66929149062500 4.77148097500000 6.20858580312500 
 S -2.51715649062500 1.21601497500000 3.40161780312500 
 S -2.53725849062500 5.15030097500000 3.48332980312500 
 S -3.30991849062500 1.92011997500000 7.38548880312500 
 S -3.25951149062500 5.53328697500000 7.50635280312500 
