16

 C -3.03374749375000 1.79638696875000 5.48702963437500 
 C -3.60465149375000 5.30455696875000 5.50400263437500 
 C -4.13420449375000 1.14064096875000 4.80283063437500 
 C -4.66025549375000 4.46065996875000 4.93971163437500 
 N -2.02761749375000 2.09347896875000 4.67398863437500 
 N -2.59630749375000 5.51466096875000 4.65767663437500 
 N -3.89936549375000 0.901331968750000 3.52659863437500 
 N -4.52058349375000 4.23892296875000 3.62505463437500 
 N -4.67400849375000 0.906673968750000 7.26724663437500 
 N -5.24500249375000 4.64517496875000 7.44474063437500 
 S -5.39622749375000 0.570812968750000 5.80007563437500 
 S -5.93529049375000 4.00755196875000 6.08511663437500 
 S -2.39150049375000 1.49331596875000 3.15743663437500 
 S -3.06802849375000 4.95177696875000 3.19367263437500 
 S -3.30449249375000 1.85341796875000 7.16515963437500 
 S -3.81404849375000 5.49674496875000 7.23215863437500 
