16

 C -2.97877232500000 1.49323714375000 5.59302357812500 
 C -3.08956632500000 5.04336814375000 5.28581557812500 
 C -4.18816232500000 0.846912143749999 5.05426557812500 
 C -4.29748532500000 4.45468514375000 4.76556157812500 
 N -1.95959832500000 1.52483414375000 4.74217357812500 
 N -2.03395232500000 4.93416614375000 4.45260457812500 
 N -4.07418732500000 0.451294143749999 3.80290257812500 
 N -4.22209832500000 4.12662214375000 3.47637657812500 
 N -4.66849732500000 1.35331714375000 7.45182957812500 
 N -4.88302632500000 5.15295914375000 7.11313257812500 
 S -5.53619332500000 0.754794143749999 6.17795057812500 
 S -5.65321832500000 4.40819814375000 5.81917557812500 
 S -2.54579232500000 0.829156143749999 3.32536757812500 
 S -2.63801532500000 4.26701814375000 3.06026657812500 
 S -3.06001232500000 1.84322814375000 7.30575657812500 
 S -3.26654932500000 5.37229214375000 6.95368557812500 
