16

 C -2.85431220937500 1.96138988749999 5.37578749375000 
 C -3.02459920937500 5.12797488750000 5.48285149375000 
 C -4.08413420937500 1.44975088750000 4.76687549375000 
 C -4.26840620937500 4.93081888750000 4.75485649375000 
 N -1.83797020937500 2.16915088750000 4.52605649375000 
 N -1.99106020937500 5.16157888749999 4.66447849375000 
 N -3.99314020937500 1.18165888750000 3.45902749375000 
 N -4.13199020937500 4.88453888750000 3.44259249375000 
 N -4.60018320937500 1.79633588750000 7.32386849375000 
 N -4.96435620937500 4.89971388750000 7.21834649375000 
 S -5.44239820937500 1.43402988750000 5.89855149375000 
 S -5.61478220937500 4.55619588750000 5.74942749375000 
 S -2.41945820937500 1.66909988750000 3.08827749375000 
 S -2.49037120937500 4.95635688750000 3.13605649375000 
 S -3.00756820937500 2.29450388750000 7.10281349375000 
 S -3.34592120937500 5.31683588750000 7.20106649375000 
