16

 C -3.44274627187500 1.31522243437500 5.44705598125000 
 C -3.19855527187500 5.13373843437500 5.83329698125000 
 C -4.60207227187500 0.913935434375000 4.71998298125000 
 C -4.44160227187500 4.80495243437500 5.22227698125000 
 N -2.37220327187500 1.52892043437500 4.65557898125000 
 N -2.20891927187500 5.54529843437500 4.98404898125000 
 N -4.46527027187500 0.697459434375000 3.40387798125000 
 N -4.39759327187500 4.73893743437500 3.89183798125000 
 N -5.18611927187500 0.973389434375000 7.29913798125000 
 N -4.94433127187500 4.65356143437500 7.70246898125000 
 S -5.85606927187500 0.369885434375000 5.87430198125000 
 S -5.73227227187500 4.34195743437500 6.23813598125000 
 S -2.87015027187500 1.23326543437500 3.13177698125000 
 S -2.84003027187500 5.28729843437500 3.48226598125000 
 S -3.57978827187500 1.21372043437500 7.19538298125000 
 S -3.35187127187500 5.29052043437500 7.56555798125000 
