16

 C -3.33726970312500 1.21055252187500 5.42344448750000 
 C -3.19074670312500 5.18651752187500 5.08899148750000 
 C -4.42435870312500 0.577400521875004 4.73104948750000 
 C -4.22234670312500 4.43033052187500 4.42154348750000 
 N -2.32039770312500 1.55184752187500 4.64258448750000 
 N -2.31509170312500 5.67151752187500 4.25393448750000 
 N -4.24380570312500 0.390238521875004 3.43393348750000 
 N -4.11925270312500 4.34207952187500 3.10048048750000 
 N -5.13391670312500 0.848585521875004 7.23283148750000 
 N -4.79968270312500 4.24395552187500 6.87183248750000 
 S -5.77791270312500 0.192941521875004 5.84953748750000 
 S -5.46527370312500 3.89112052187500 5.40848248750000 
 S -2.76187770312500 1.17517252187500 3.10613648750000 
 S -2.70039870312500 5.14567852187500 2.69415548750000 
 S -3.61185070312500 1.45694152187500 7.13518148750000 
 S -3.47668570312500 5.21946952187500 6.81379848750000 
