16

 C -3.24316170625000 1.53213252187500 5.55668996562500 
 C -3.00905870625000 5.31859752187500 5.61015896562500 
 C -4.38596270625000 1.26390352187500 4.77089996562500 
 C -4.28857970625000 5.07142352187500 4.97958296562500 
 N -2.14246870625000 1.82775252187500 4.84647196562500 
 N -2.02193570625000 5.45420352187500 4.72697996562500 
 N -4.19647370625000 1.18950752187500 3.45594496562500 
 N -4.21069870625000 4.80202052187500 3.68082396562500 
 N -5.00455670625000 0.658013521875001 7.20658396562500 
 N -4.80221170625000 5.05594952187500 7.51391396562500 
 S -5.69493370625000 0.731070521875001 5.74502896562500 
 S -5.67969670625000 4.94401652187500 6.04774596562500 
 S -2.62242070625000 1.71137652187500 3.26720696562500 
 S -2.64882270625000 4.99987952187500 3.21424396562500 
 S -3.51535570625000 1.35900952187500 7.34233796562500 
 S -3.13044670625000 5.54559452187500 7.35905096562500 
