16

 C -2.90995988750000 1.34200078750000 5.59948928125000 
 C -3.06072688750000 5.08776478750000 5.19743328125000 
 C -4.09305888750000 0.982103787499999 4.82170528125000 
 C -4.36069288750000 4.88705178750000 4.52171528125000 
 N -1.84432588750000 1.47506978750000 4.83273628125000 
 N -2.10707188750000 5.16763378750000 4.29637828125000 
 N -3.89040988750000 0.746232787499999 3.54447328125000 
 N -4.28905388750000 4.52625278750000 3.26022328125000 
 N -4.93720488750000 1.55955078750000 7.25076928125000 
 N -4.72662988750000 4.97361278750000 7.10142428125000 
 S -5.53357588750000 0.865054787499998 5.84370228125000 
 S -5.61062788750000 4.80957278750000 5.74702628125000 
 S -2.31274488750000 0.913128787499999 3.24446928125000 
 S -2.71972488750000 4.78939178750000 2.80432928125000 
 S -3.28501888750000 1.64276678750000 7.28008328125000 
 S -3.11234588750000 5.34995078750000 6.91022928125000 
