16

 C -3.19912443750000 1.55047243750000 5.49820357187500 
 C -2.97255043750000 5.08193743750000 5.49238457187500 
 C -4.42756643750000 1.08445343750000 4.92268557187500 
 C -4.22363243750000 4.72045143750000 4.84601657187500 
 N -2.22927543750000 1.75043643750000 4.63333057187500 
 N -1.98418743750000 4.98454643750000 4.63364857187500 
 N -4.37279343750000 0.931382437499998 3.56096257187500 
 N -4.14517243750000 4.28420243750000 3.58270757187500 
 N -4.88652443750000 1.43334443750000 7.41308157187500 
 N -4.66163343750000 5.08752343750000 7.33004457187500 
 S -5.64590243750000 0.855603437499998 6.09328857187500 
 S -5.56251643750000 4.87489343750000 5.94306457187500 
 S -2.82938243750000 1.27834243750000 3.12874957187500 
 S -2.57174943750000 4.49167443750000 3.17429557187500 
 S -3.24130843750000 1.78774043750000 7.18255857187500 
 S -3.01743343750000 5.29247943750000 7.18884657187500 
