16

 C -3.13882916875000 1.72033924687500 5.76291633750000 
 C -3.13449316875000 5.27988724687500 5.88863533750000 
 C -4.26493816875000 1.05313624687500 5.10390833750000 
 C -4.28956716875000 4.65640224687500 5.30763833750000 
 N -2.15227616875000 1.94364324687500 4.90096233750000 
 N -2.15252116875000 5.54808724687500 5.05619633750000 
 N -4.17858116875000 0.773825246875000 3.79113433750000 
 N -4.12529516875000 4.51109824687500 3.95486233750000 
 N -5.05724916875000 1.10318924687500 7.42980433750000 
 N -4.67210116875000 4.88085624687500 7.90446633750000 
 S -5.68329816875000 0.649723246874999 5.97421733750000 
 S -5.64031916875000 4.45996924687500 6.47029433750000 
 S -2.72346616875000 1.45051224687500 3.33477433750000 
 S -2.59211116875000 5.07505124687500 3.55083033750000 
 S -3.57057816875000 1.88315524687500 7.48396933750000 
 S -3.17147216875000 5.60995024687500 7.55625633750000 
