16

 C -3.11825076562500 1.45318536875000 5.55882712812500 
 C -3.30841476562500 5.11097036875000 5.26430412812500 
 C -4.24344676562500 1.07823236875000 4.75684412812500 
 C -4.38421376562500 4.38740936875000 4.60595412812500 
 N -1.93670576562500 1.63363736875000 4.90956512812500 
 N -2.24209076562500 5.21408236875000 4.48555112812500 
 N -3.92266376562500 0.778481368749997 3.47434012812500 
 N -4.11842276562500 3.89784536875000 3.39012012812500 
 N -5.09750076562500 1.22177736875000 7.25299212812500 
 N -5.31767876562500 5.32779936875000 6.80228112812500 
 S -5.73540476562500 0.921512368749997 5.74822312812500 
 S -5.82177176562500 4.34731536875000 5.61158212812500 
 S -2.37550876562500 1.20377536875000 3.35913912812500 
 S -2.58155876562500 4.40992836875000 3.08658712812500 
 S -3.43534876562500 1.64535236875000 7.26693712812500 
 S -3.72087276562500 5.69430336875000 6.85935712812500 
