16

 C -2.99365636250000 1.75104364375000 5.56816244375000 
 C -3.10052036250000 5.37452164375000 5.55739344375000 
 C -4.13322836250000 1.07965464375000 4.95976444375000 
 C -4.31109836250000 4.85286164375000 5.00240444375000 
 N -1.89161236250000 1.87609764375000 4.78999444375000 
 N -2.05980136250000 5.54221564375000 4.75666944375000 
 N -3.86004336250000 0.629540643749999 3.73010844375000 
 N -4.12347436250000 4.52777464375000 3.72818144375000 
 N -4.77530436250000 1.42654164375000 7.52673444375000 
 N -4.85249336250000 5.33501964375000 7.50298044375000 
 S -5.44850736250000 0.775386643749998 6.19570244375000 
 S -5.69923636250000 4.96006264375000 6.08059344375000 
 S -2.35785836250000 1.19449464375000 3.31594144375000 
 S -2.62383036250000 4.98758964375000 3.30861644375000 
 S -3.25682936250000 2.12750164375000 7.32379644375000 
 S -3.22929936250000 5.69391264375000 7.23546344375000 
