16

 C -3.16333636875000 1.44043799062500 5.24394665000000 
 C -3.06269536875000 5.22146699062500 5.56467665000000 
 C -4.33039236875000 0.923929990625000 4.60067065000000 
 C -4.30654736875000 4.79459399062500 5.04101065000000 
 N -2.17004936875000 1.78805799062500 4.43236665000000 
 N -2.06082936875000 5.23323999062500 4.68064865000000 
 N -4.32896036875000 0.995915990625000 3.26461265000000 
 N -4.32479236875000 4.55880899062500 3.73528565000000 
 N -4.71956136875000 0.521751990625000 7.19852665000000 
 N -4.63229336875000 5.04064899062500 7.56260165000000 
 S -5.48142836875000 0.271405990625000 5.75696265000000 
 S -5.50658536875000 4.44053299062500 6.25919865000000 
 S -2.75874636875000 1.59521799062500 2.89997265000000 
 S -2.71681136875000 4.88486999062500 3.23046965000000 
 S -3.24583536875000 1.27889099062500 7.03205265000000 
 S -3.05267236875000 5.57656999062500 7.21753965000000 
