16

 C -3.06952927812500 1.21394023750000 5.34412935625000 
 C -2.89043327812500 5.00308223750000 5.72096735625000 
 C -4.33080827812500 0.860581237500001 4.66543935625000 
 C -4.09785227812500 4.53503623750000 5.08101235625000 
 N -2.10687127812500 1.58720123750000 4.47404735625000 
 N -1.91860627812500 5.29144923750000 4.87417335625000 
 N -4.18915027812500 0.962588237500000 3.33652835625000 
 N -3.95744727812500 4.38441923750000 3.75935835625000 
 N -4.89496027812500 0.758539237500001 7.17000735625000 
 N -4.56861427812500 4.82255023750000 7.69855935625000 
 S -5.55725627812500 0.317221237500001 5.71068635625000 
 S -5.38596827812500 4.38832723750000 6.26222635625000 
 S -2.65476027812500 1.40693923750000 2.94776335625000 
 S -2.41196527812500 4.86154423750000 3.39069635625000 
 S -3.35469927812500 1.24087323750000 7.09262435625000 
 S -2.97098727812500 5.33110423750000 7.47769735625000 
