16

 C -3.18435065000000 1.54864221562500 5.38619064687500 
 C -3.13629365000000 5.29182321562500 6.00231264687500 
 C -4.34177265000000 1.02013321562500 4.73851064687500 
 C -4.40831565000000 5.02074521562500 5.29599964687500 
 N -2.12423365000000 1.84414821562500 4.63888964687500 
 N -2.09051365000000 5.36709021562500 5.21014764687500 
 N -4.12898665000000 0.777899215625003 3.43612164687500 
 N -4.34326465000000 4.87104121562500 3.98975964687500 
 N -4.90105165000000 1.02425721562500 7.26209264687500 
 N -4.98233065000000 5.15750421562500 7.84693664687500 
 S -5.63995565000000 0.657579215625003 5.79530464687500 
 S -5.70262765000000 4.90755421562500 6.40821064687500 
 S -2.61622865000000 1.45109521562500 3.05098164687500 
 S -2.73441865000000 5.04763421562500 3.65523564687500 
 S -3.24495865000000 1.44722921562500 7.14032364687500 
 S -3.34928865000000 5.41062221562500 7.74627064687500 
