16

 C -3.13299872812500 1.09955236562500 5.71502356875000 
 C -2.76042372812500 4.66233636562500 5.43831456875000 
 C -4.46066072812500 0.872558365625004 5.25851056875000 
 C -4.07098272812500 4.42541836562500 4.83037056875000 
 N -2.18141972812500 0.956927365625003 4.85253556875000 
 N -1.77563672812500 4.81736736562500 4.57742956875000 
 N -4.44678572812500 0.602971365625004 3.92381456875000 
 N -4.05294772812500 4.42705136562500 3.49635256875000 
 N -4.51211472812500 1.75030336562500 7.82776456875000 
 N -4.62564372812500 4.66921636562500 7.30031256875000 
 S -5.63082172812500 1.39978736562500 6.55115456875000 
 S -5.47438572812500 4.60580736562500 5.84302356875000 
 S -2.89155372812500 0.593710365625004 3.45242756875000 
 S -2.54968872812500 4.74349336562500 3.03037856875000 
 S -2.88449672812500 1.72977636562500 7.29075556875000 
 S -3.04119372812500 4.84059336562500 7.26199656875000 
