16

 C -3.13401242812500 1.45427469062500 5.45197704375000 
 C -3.28410342812500 5.05038169062500 5.40379504375000 
 C -4.23309442812500 0.833054690625000 4.83112904375000 
 C -4.53156742812500 4.51565969062500 4.85103804375000 
 N -2.02836742812500 1.55967869062500 4.74994604375000 
 N -2.27664042812500 5.11295869062500 4.54802004375000 
 N -4.03542042812500 0.542041690625000 3.56009904375000 
 N -4.46254242812500 4.31532569062500 3.51656604375000 
 N -4.96386442812500 1.38753669062500 7.18724704375000 
 N -4.92511142812500 5.26851769062500 7.28089604375000 
 S -5.66817442812500 0.813654690625000 5.77546504375000 
 S -5.77798142812500 4.54729669062500 6.06787504375000 
 S -2.45091142812500 1.05169569062500 3.25092804375000 
 S -2.86223342812500 4.63188669062500 3.09491104375000 
 S -3.35450442812500 1.89798769062500 7.11756204375000 
 S -3.31267442812500 5.63184669062500 7.06363304375000 
