16

 C -3.30974982500001 0.872538396874995 5.46705616875000 
 C -3.25941882500001 5.20282739687499 5.46732316875000 
 C -4.53045882500001 0.615111396874995 4.75169616875000 
 C -4.39944182500001 4.65180439687500 4.78244816875000 
 N -2.27418782500001 1.13338439687499 4.71651816875000 
 N -2.20888482500001 5.42912539687499 4.67567016875000 
 N -4.32224782500001 0.646407396874995 3.45213716875000 
 N -4.28393582500001 4.57827739687500 3.45483416875000 
 N -5.12330782500001 0.748878396874995 7.22145816875000 
 N -5.05849182500001 4.54410439687499 7.22026616875000 
 S -5.91300982500001 0.565626396874995 5.78974416875000 
 S -5.69896382500001 4.00157639687500 5.77202016875000 
 S -2.75120682500001 0.914924396874995 3.12524116875000 
 S -2.82142182500001 5.11816539687499 3.07266116875000 
 S -3.50722282500001 0.927615396874995 7.16416316875000 
 S -3.58921782500001 5.38796039687499 7.19620616875000 
