16

 C -3.16199967812500 1.47603544062500 5.56294455312500 
 C -2.83380567812500 5.34847644062500 5.38027755312500 
 C -4.39676667812500 0.936497440624999 5.06220655312500 
 C -4.11947067812500 4.87628544062500 4.83848555312500 
 N -2.15805267812500 1.64305244062500 4.69740255312500 
 N -1.91270267812500 5.61246144062500 4.49431455312500 
 N -4.31616567812500 0.584726440624999 3.75315055312500 
 N -4.15284667812500 4.78409044062500 3.52672255312500 
 N -4.64100067812500 1.15692344062500 7.65275055312500 
 N -4.57433967812500 4.92990844062500 7.37360755312500 
 S -5.58263667812500 0.752480440624998 6.33811555312500 
 S -5.45108467812500 4.65879244062500 5.95144655312500 
 S -2.79528967812500 1.11248544062500 3.23765555312500 
 S -2.68461967812500 5.24071744062500 3.00229555312500 
 S -3.05792467812500 1.63308944062500 7.23788055312500 
 S -2.99416767812500 5.39722844062500 7.23682255312500 
