16

 C -3.14928131250000 1.09023597500000 5.53904919062500 
 C -3.21984731250000 4.63219897500000 5.67875819062500 
 C -4.32425131250000 0.702029974999999 4.72838719062500 
 C -4.49244531250000 4.44965497500000 5.03177519062500 
 N -2.06662231250000 1.41376897500000 4.78424019062500 
 N -2.26432431250000 4.82206197500000 4.75632519062500 
 N -4.17540431250000 0.798326974999999 3.41161919062500 
 N -4.51538431250000 4.39213597500000 3.69749019062500 
 N -5.10462131250000 0.367353974999999 7.13096619062500 
 N -4.93397631250000 4.75355697500000 7.55804119062500 
 S -5.67595931250000 0.102099974999999 5.60888819062500 
 S -5.79427431250000 4.49045997500000 6.18765119062500 
 S -2.67984031250000 1.33197897500000 3.23534119062500 
 S -2.94266031250000 4.69661197500000 3.26737019062500 
 S -3.50256831250000 0.802588974999999 7.20713919062500 
 S -3.31296031250000 4.97717297500000 7.35640519062500 
