16

 C -2.94787457187500 1.92079128437501 5.61121800000000 
 C -3.19852057187500 5.60483528437501 5.30040500000000 
 C -4.17774557187500 1.64274228437501 4.95563400000000 
 C -4.36798157187500 4.94664828437501 4.67535000000000 
 N -1.88683657187500 1.98323028437501 4.82204700000000 
 N -2.25305957187500 5.90328428437501 4.40599500000000 
 N -4.07901157187500 1.61575628437501 3.61344100000000 
 N -4.25496657187500 4.63949328437501 3.40727000000000 
 N -4.63514957187500 1.55245128437501 7.56305800000000 
 N -4.92447957187500 4.99592828437501 7.18889900000000 
 S -5.48134257187500 1.42273428437501 6.14600800000000 
 S -5.67314157187500 4.51407328437501 5.78037200000000 
 S -2.51183157187500 1.86761028437501 3.22195600000000 
 S -2.79587157187500 5.25110728437501 2.92053100000000 
 S -3.04569157187500 2.09386928437501 7.33436000000000 
 S -3.30430457187500 5.48898728437501 7.07480400000000 
