16

 C -3.03686413437500 1.07787968125000 5.49301686250000 
 C -3.08366613437500 5.06151168125000 5.55037286250000 
 C -4.21418713437500 0.616130681250001 4.80126586250000 
 C -4.33127213437500 4.84131768125000 4.91487886250000 
 N -1.94883813437500 1.09471568125000 4.72569786250000 
 N -1.99811313437500 4.98987668125000 4.78180586250000 
 N -3.97365413437500 0.359383681250002 3.54104086250000 
 N -4.18637213437500 4.68492368125000 3.55499686250000 
 N -5.06877513437500 1.18220068125000 7.10030186250000 
 N -4.84463713437500 5.18845468125000 7.33798686250000 
 S -5.62711813437500 0.481150681250001 5.71956386250000 
 S -5.68682613437500 4.75905968125000 6.00293186250000 
 S -2.45678413437500 0.685007681250001 3.16481086250000 
 S -2.60130613437500 4.73376868125000 3.22043086250000 
 S -3.41116613437500 1.36872668125000 7.19981186250000 
 S -3.21355613437500 5.44146768125000 7.21764486250000 
