16

 C -2.84274501562500 1.84020525625000 5.37483689687500 
 C -3.13396201562500 5.21694325625000 5.48242789687500 
 C -4.11994001562500 1.48335025625000 4.76778589687500 
 C -4.33712201562500 4.81283925625000 4.78756489687500 
 N -1.77184901562500 1.74186725625000 4.57531889687500 
 N -2.01067501562500 5.25985125625000 4.73026189687500 
 N -4.07432201562500 1.29605225625000 3.43074989687500 
 N -4.13165201562500 4.52182325625000 3.48717789687500 
 N -4.62976801562500 1.71773025625000 7.30942489687500 
 N -4.94803201562500 4.92058225625000 7.31912389687500 
 S -5.44445501562500 1.38354825625000 5.89119989687500 
 S -5.71406101562500 4.64310125625000 5.86857989687500 
 S -2.47496401562500 1.42506625625000 3.07204889687500 
 S -2.49005901562500 4.85064525625000 3.23067189687500 
 S -3.03016901562500 2.12355125625000 7.13347589687500 
 S -3.32479801562500 5.27483725625000 7.18661089687500 
