16

 C -3.23684432500000 1.23127346562501 5.58282963125000 
 C -3.23392932500000 4.91478246562500 5.57803163125000 
 C -4.43904332500000 0.895837465625005 4.85539563125000 
 C -4.41919832500000 4.48558546562500 4.90957163125000 
 N -2.14103432500000 1.43802846562500 4.88150863125000 
 N -2.24241632500000 5.15067746562501 4.74984063125000 
 N -4.29646332500000 0.934209465625004 3.52919163125000 
 N -4.42140832500000 4.44887746562500 3.56939463125000 
 N -4.95770932500000 1.28797846562500 7.42446663125000 
 N -5.26722632500000 4.84156346562500 7.28196763125000 
 S -5.76047232500000 0.871303465625004 6.01880963125000 
 S -5.83523832500000 4.08511646562500 5.83833463125000 
 S -2.57262832500000 1.23786946562501 3.30604663125000 
 S -2.84574732500000 4.91026846562501 3.17506663125000 
 S -3.33235132500000 1.59416746562500 7.22508663125000 
 S -3.67323932500000 5.08484746562501 7.31149863125000 
