16

 C -3.19606278750000 1.09518870000000 5.56966485312500 
 C -3.28502778750000 5.18364670000000 5.68594085312500 
 C -4.42914078750000 0.873644700000001 4.89400185312500 
 C -4.31393678750000 4.44612470000000 5.05779785312500 
 N -2.11820278750000 1.15466370000000 4.77033085312500 
 N -2.29506978750000 5.53838270000000 4.85959185312500 
 N -4.34081078750000 0.735726700000001 3.56103385312500 
 N -4.19804278750000 4.37120870000000 3.73021085312500 
 N -5.01186878750000 0.533173700000001 7.43962385312500 
 N -4.91966178750000 4.44743170000000 7.58318985312500 
 S -5.81159178750000 0.570353700000001 6.01348985312500 
 S -5.65167478750000 4.11175970000000 6.12236685312500 
 S -2.73236978750000 0.922998700000000 3.23187485312500 
 S -2.74094778750000 5.04591270000000 3.33824085312500 
 S -3.43585278750000 1.02501470000000 7.28315485312500 
 S -3.50718178750000 5.32067170000000 7.38080985312500 
