16

 C -3.29967519687500 1.41579290625000 5.30904653750000 
 C -3.17542219687500 5.38731190625000 5.53741353750000 
 C -4.42983419687500 0.869539906249999 4.68478653750000 
 C -4.35314419687500 4.71989390625000 4.95830253750000 
 N -2.31662419687500 1.83244690625000 4.50063953750000 
 N -2.26309419687500 5.68282790625000 4.62675053750000 
 N -4.31608119687500 0.807153906249999 3.35074453750000 
 N -4.28273119687500 4.49457890625000 3.66042453750000 
 N -4.85760819687500 0.866948906249999 7.30471153750000 
 N -4.90461219687500 4.92643290625000 7.43870953750000 
 S -5.64198819687500 0.453103906249999 5.87618553750000 
 S -5.71131319687500 4.51581590625000 6.03976653750000 
 S -2.87060319687500 1.48118590625000 2.95110153750000 
 S -2.91797519687500 5.17429390625000 3.14661953750000 
 S -3.33353619687500 1.51192090625000 7.03265253750000 
 S -3.32297919687500 5.43464990625000 7.30332453750000 
