16

 C -3.09253550937500 1.08737645312500 5.46194188437500 
 C -3.14523450937500 4.79801445312500 5.48963088437500 
 C -4.27603050937500 0.625599453125004 4.79719388437500 
 C -4.44499550937500 4.71895045312500 4.89118888437500 
 N -2.12914250937500 1.39306045312500 4.57669188437500 
 N -2.12658650937500 4.69487345312500 4.67601988437500 
 N -4.19291250937500 0.597648453125003 3.46126488437500 
 N -4.37545850937500 4.46600645312500 3.58056188437500 
 N -4.89573650937500 0.582358453125003 7.30159388437500 
 N -4.79321250937500 5.04048445312500 7.39877688437500 
 S -5.57547850937500 0.266171453125003 5.82131188437500 
 S -5.72548850937500 4.91672145312500 6.03065288437500 
 S -2.68343350937500 0.982603453125003 3.04718988437500 
 S -2.79143850937500 4.45228545312500 3.14622988437500 
 S -3.26549550937500 1.01289545312500 7.22273888437500 
 S -3.18408750937500 4.85291145312500 7.19596588437500 
