16

 C -3.15195580000000 1.21034182812500 5.60836507812500 
 C -3.62048180000000 4.97708782812500 5.06221207812500 
 C -4.37899080000000 0.701416828125001 5.00568507812500 
 C -4.68830780000000 4.22885882812500 4.48883907812500 
 N -2.20257480000000 1.46424582812500 4.72218507812500 
 N -2.61141980000000 5.26692482812500 4.26545707812500 
 N -4.39711280000000 0.673563828125001 3.68867907812500 
 N -4.49877980000000 3.95492882812500 3.21875307812500 
 N -4.72845080000000 0.786189828125001 7.54439707812500 
 N -5.28914080000000 4.65399482812500 6.90849907812500 
 S -5.61320580000000 0.541432828125001 6.18413307812500 
 S -5.99291180000000 3.83903482812500 5.68796307812500 
 S -2.81547880000000 1.05758982812500 3.23393407812500 
 S -3.01976280000000 4.56082582812500 2.78902407812500 
 S -3.20093680000000 1.36049982812500 7.28909507812500 
 S -3.75285380000000 5.21191882812500 6.73868507812500 
