16

 C -3.26212313437500 1.43770906250000 5.75064951250000 
 C -3.31773713437500 5.12880106250000 5.42283251250000 
 C -4.43965813437500 0.937154062500002 4.99127851250000 
 C -4.56010413437500 4.79185006250000 4.77346051250000 
 N -2.15808813437500 1.61163006250000 5.02566451250000 
 N -2.30276913437500 5.32250106250000 4.56547551250000 
 N -4.16745013437500 0.670869062500002 3.72793551250000 
 N -4.46649513437500 4.60827406250000 3.45283251250000 
 N -5.30175013437500 1.07228206250000 7.37085451250000 
 N -5.09516113437500 4.91470406250000 7.27391051250000 
 S -5.86272613437500 0.568597062500002 5.87513551250000 
 S -5.80196913437500 4.40284806250000 5.86308751250000 
 S -2.64879213437500 1.17022706250000 3.46989351250000 
 S -2.96949813437500 5.08822906250000 3.03039851250000 
 S -3.68519213437500 1.58396606250000 7.44871651250000 
 S -3.42807313437500 5.30297906250000 7.18840551250000 
