16

 C -3.05923246250000 1.53209511875000 5.65589789687500 
 C -3.40357446250000 4.87116111875000 5.61083789687500 
 C -4.25004446250000 1.15703811875000 4.96319489687500 
 C -4.52876646250000 4.43341011875000 4.77818089687500 
 N -1.95962746250000 1.58243311875000 4.90286389687500 
 N -2.27525846250000 4.99762911875000 4.92021289687500 
 N -4.09345546250000 0.959068118749999 3.66872889687500 
 N -4.21415646250000 4.33394011875000 3.49159889687500 
 N -5.10256146250000 1.13352511875000 7.42169089687500 
 N -5.23678546250000 4.78626911875000 7.22247689687500 
 S -5.71357246250000 0.925677118749999 5.83609889687500 
 S -5.91801146250000 4.18943811875000 5.81009089687500 
 S -2.49529946250000 1.27044111875000 3.30902089687500 
 S -2.54813746250000 4.69801211875000 3.37096089687500 
 S -3.46264446250000 1.59317811875000 7.41845789687500 
 S -3.60935546250000 5.04755511875000 7.25089789687500 
