16

 C -3.19366283750000 1.28147296250000 5.35657771250000 
 C -3.14812983750000 4.96582596250000 5.46786571250000 
 C -4.27733583750000 0.572450962500003 4.83251271250000 
 C -4.47558983750000 4.67662796250000 4.94671871250000 
 N -2.22013183750000 1.61695996250000 4.50536071250000 
 N -2.17533583750000 5.04800296250000 4.56280971250000 
 N -4.19227783750000 0.299123962500003 3.52753871250000 
 N -4.45967183750000 4.41816696250000 3.65554771250000 
 N -4.87782283750000 1.22777696250000 7.35627271250000 
 N -4.79819883750000 4.83703596250000 7.49794971250000 
 S -5.57004883750000 0.357638962500003 6.13693471250000 
 S -5.74394383750000 4.66004096250000 6.12913071250000 
 S -2.70071483750000 0.879726962500003 3.02404571250000 
 S -2.91849083750000 4.71182996250000 3.07922871250000 
 S -3.39724783750000 1.88686896250000 7.01052271250000 
 S -3.23939083750000 5.32821496250000 7.13226171250000 
