16

 C -3.03737747500000 1.39949562187500 5.46679474062500 
 C -3.42942847500000 5.12554762187500 5.40585974062500 
 C -4.33193447500000 1.01255462187500 4.93784474062500 
 C -4.65315347500000 4.53514262187500 4.83078274062500 
 N -2.07573347500000 1.32957862187500 4.55212574062500 
 N -2.46253747500000 5.46244862187500 4.58213674062500 
 N -4.40999247500000 0.738801621875003 3.68627574062500 
 N -4.49261447500000 4.38261762187500 3.51305974062500 
 N -4.85333547500000 1.13369962187500 7.41171574062500 
 N -4.96526147500000 4.52434662187500 7.38612374062500 
 S -5.70468947500000 0.926008621875002 6.01580374062500 
 S -5.86590347500000 4.18024762187500 5.98147074062500 
 S -2.87676947500000 1.05117762187500 3.04898274062500 
 S -2.95878247500000 5.01004562187500 3.10030174062500 
 S -3.25920347500000 1.60969062187500 7.25498074062500 
 S -3.42995347500000 5.20601862187500 7.09189874062500 
