16

 C -2.98252660000000 1.23068040312500 5.54312125625000 
 C -2.93497960000000 5.06287340312500 5.68315725625000 
 C -4.12934460000000 0.652019403125000 4.84516125625000 
 C -4.11641560000000 4.49494840312500 5.09658825625000 
 N -1.89061160000000 1.33833840312500 4.82181525625000 
 N -1.93248160000000 5.29028940312500 4.82416525625000 
 N -3.86795360000000 0.385767403125000 3.58328925625000 
 N -4.03728460000000 4.23975840312500 3.77008725625000 
 N -4.89305560000000 1.29715140312500 7.21492125625000 
 N -4.70068060000000 4.84098040312500 7.61176025625000 
 S -5.49854960000000 0.595568403125000 5.84505225625000 
 S -5.44344860000000 4.32112040312500 6.23963625625000 
 S -2.30746060000000 0.827152403125000 3.27695825625000 
 S -2.56319860000000 4.82215340312500 3.31715725625000 
 S -3.23088860000000 1.63054540312500 7.17093425625000 
 S -3.11376660000000 5.38099640312500 7.38529225625000 
