16

 C -3.23016747812500 1.65640552812500 5.37559438750000 
 C -3.04155347812500 4.96826452812500 5.50710138750000 
 C -4.40845747812500 1.25675752812500 4.67998638750000 
 C -4.28779547812500 4.59416052812500 4.87159238750000 
 N -2.19407347812500 1.91206952812500 4.60715838750000 
 N -1.94294947812500 5.08829652812500 4.71346638750000 
 N -4.25809447812500 1.21895152812500 3.35338738750000 
 N -4.15913047812500 4.57281252812500 3.53505638750000 
 N -4.95765747812500 1.05832652812500 7.23307938750000 
 N -4.81954047812500 4.88849352812500 7.29277438750000 
 S -5.69298847812500 0.936000528125001 5.73114438750000 
 S -5.74283347812500 4.63874452812500 5.90664338750000 
 S -2.64267247812500 1.64450352812500 3.05430938750000 
 S -2.57592447812500 4.94274352812500 3.18134138750000 
 S -3.39579147812500 1.67193252812500 7.13358538750000 
 S -3.19125447812500 5.06739052812500 7.21695338750000 
