16

 C -3.78913125312500 1.15470479062500 5.68937777187500 
 C -3.15868725312500 4.96621879062500 5.33589377187500 
 C -4.89669825312500 0.701971790625000 4.90398077187500 
 C -4.41319725312500 4.51000879062500 4.76205777187500 
 N -2.65841525312500 1.44340079062500 5.01737977187500 
 N -2.15982925312500 5.02550979062500 4.48575077187500 
 N -4.58443825312500 0.532105790625001 3.59685277187500 
 N -4.28984925312500 4.16181379062500 3.48541577187500 
 N -5.60737925312500 0.671503790625001 7.35639877187500 
 N -4.72459625312500 5.03880079062500 7.29373177187500 
 S -6.26945625312500 0.216347790625001 5.87806277187500 
 S -5.54499625312500 4.26311579062500 6.04963977187500 
 S -3.10741125312500 1.20012479062500 3.47673477187500 
 S -2.73771425312500 4.59188079062500 3.03366077187500 
 S -4.02296025312500 1.27387679062500 7.36556377187500 
 S -3.18032725312500 5.50716079062500 6.96655377187500 
