16

 C -3.13033158437500 1.24382411250000 5.55779109375000 
 C -2.99845158437500 5.10187611250000 5.63161109375000 
 C -4.26953658437500 0.718219112499995 4.85115409375000 
 C -4.11688458437500 4.54950411250000 4.92932809375000 
 N -2.00392958437500 1.21320711250000 4.84743909375000 
 N -1.94815758437500 5.30364611250000 4.83479709375000 
 N -4.04992858437500 0.416468112499995 3.59349609375000 
 N -3.92348458437500 4.32276111249999 3.62460309375000 
 N -4.94699158437500 1.00682811250000 7.32971709375000 
 N -4.68523558437500 4.71473211249999 7.49307609375000 
 S -5.64586458437500 0.562833112499995 5.86757709375000 
 S -5.45882158437500 4.31968111250000 6.07569509375000 
 S -2.44284658437500 0.853867112499995 3.32533609375000 
 S -2.44159558437500 4.91523211249999 3.29202209375000 
 S -3.27802458437500 1.27553311250000 7.24380209375000 
 S -3.15003658437500 5.35908911250000 7.32604909375000 
