16

 C -2.98241749375000 1.38982979062500 5.50769641250000 
 C -3.16639649375000 5.07359379062500 5.54165941250000 
 C -4.25161149375000 1.27700379062500 4.84956341250000 
 C -4.36062149375000 4.62177379062500 4.92184541250000 
 N -1.95044149375000 1.30398779062500 4.66664041250000 
 N -2.16635449375000 5.18226179062500 4.71273941250000 
 N -4.19148649375000 1.03145779062500 3.55621041250000 
 N -4.25220249375000 4.28505079062500 3.64584241250000 
 N -4.80686449375000 1.54012479062500 7.32848041250000 
 N -5.02577449375000 5.18126579062500 7.32323241250000 
 S -5.60978949375000 1.50512579062500 5.86680741250000 
 S -5.75415149375000 4.60630479062500 5.92240741250000 
 S -2.55593749375000 1.11659779062500 3.16984141250000 
 S -2.71104649375000 4.67882379062500 3.20606241250000 
 S -3.12232049375000 1.62505179062500 7.19227841250000 
 S -3.38982949375000 5.41941679062500 7.24299741250000 
