16

 C -3.67617879375000 1.15480309375000 5.64205350000000 
 C -2.98432079375000 5.00433209375000 5.36260550000000 
 C -4.82921779375000 0.562807093750000 4.98339250000000 
 C -4.23428479375000 4.49024909375000 4.83766050000000 
 N -2.67702979375000 1.53669909375000 4.81138150000000 
 N -2.04161779375000 5.12042709375000 4.43962450000000 
 N -4.65513479375000 0.403394093749999 3.66532550000000 
 N -4.17629979375000 4.07883209375000 3.57617650000000 
 N -5.49111579375000 0.584634093750000 7.39312250000000 
 N -4.72977779375000 4.91950309375000 7.30077750000000 
 S -6.19722079375000 0.159275093750000 5.92490650000000 
 S -5.49945079375000 4.29785009375000 5.95569550000000 
 S -3.18170079375000 1.04424509375000 3.31594750000000 
 S -2.64987579375000 4.53392809375000 3.01535150000000 
 S -3.89755279375000 1.17158109375000 7.36098250000000 
 S -3.15095579375000 5.43680109375000 7.10292050000000 
