16

 C -3.15816076875000 1.28948724375000 5.27403450312500 
 C -2.87359876875000 5.01381224375000 5.66908250312500 
 C -4.27833176875000 0.797287243749999 4.62531850312500 
 C -4.08001276875000 4.48137924375000 5.13355050312500 
 N -2.14404876875000 1.57882724375000 4.50585350312500 
 N -1.94054076875000 5.23471624375000 4.72004450312500 
 N -4.09205776875000 0.649686243749998 3.33752250312500 
 N -4.06466076875000 4.21706524375000 3.82941750312500 
 N -4.82997876875000 0.735834243749999 7.07328550312500 
 N -4.52589076875000 4.63067224375000 7.66663250312500 
 S -5.60940776875000 0.298497243749998 5.63033250312500 
 S -5.41574676875000 4.49809824375000 6.23833950312500 
 S -2.62650876875000 1.30757824375000 2.99461850312500 
 S -2.64836876875000 4.81221424375000 3.29372050312500 
 S -3.32506376875000 1.39839924375000 6.99136050312500 
 S -2.95843776875000 5.13216924375000 7.38743250312500 
