16

 C -3.18643009687500 0.972762915624997 5.42910824062500 
 C -3.19315609687500 4.63981191562500 5.56718624062500 
 C -4.48268709687500 0.702705915624997 4.83227524062500 
 C -4.50809709687500 4.55954691562500 4.98278824062500 
 N -2.17531609687500 1.13147791562500 4.53268824062500 
 N -2.20675409687500 4.73719291562500 4.71298224062500 
 N -4.53678109687500 0.744677915624997 3.49712524062500 
 N -4.48575209687500 4.58300791562500 3.65149424062500 
 N -4.89700009687500 0.456917915624997 7.33942224062500 
 N -4.91910909687500 4.69325591562500 7.51396324062500 
 S -5.76235609687500 0.234887915624997 5.90519224062500 
 S -5.79412909687500 4.58656391562500 6.12338524062500 
 S -2.94580009687500 1.09724291562500 3.06639524062500 
 S -2.83111809687500 4.73261091562500 3.19775224062500 
 S -3.28713009687500 0.860032915624997 7.16877324062500 
 S -3.25447009687500 4.71490291562500 7.33141424062500 
