16

 C -3.22809175937500 1.19205393437500 5.51468430937500 
 C -2.94619175937500 5.11982893437500 5.43417930937500 
 C -4.47991875937500 0.741084934374999 5.05808930937500 
 C -4.16479975937500 4.90958393437500 4.71064530937500 
 N -2.31002675937500 1.32456193437500 4.54256030937500 
 N -1.84864375937500 5.23676393437500 4.68715430937500 
 N -4.58555575937500 0.600214934374999 3.73491530937500 
 N -3.99923175937500 4.85901193437500 3.40142330937500 
 N -4.83114875937500 1.01166793437500 7.61108230937500 
 N -4.82144775937500 4.80789493437500 7.25467330937500 
 S -5.74317675937500 0.769466934374999 6.21994330937500 
 S -5.51989175937500 4.63101193437500 5.71325530937500 
 S -3.07667775937500 0.949041934374999 3.09332430937500 
 S -2.37050175937500 5.06767493437500 3.11294030937500 
 S -3.25959375937500 1.34209093437500 7.26698530937500 
 S -3.16438475937500 5.10562193437500 7.23548130937500 
