16

 C -3.20322087812500 1.50917231875000 5.41854251562500 
 C -3.42596287812500 5.30100931875000 5.29452051562500 
 C -4.29276587812500 0.765055318750000 4.96778251562500 
 C -4.46763687812500 4.53400231875000 4.64839251562500 
 N -2.32379887812500 1.65560131875000 4.45997851562500 
 N -2.38731387812500 5.60039631875000 4.50824251562500 
 N -4.29617387812500 0.406501318750000 3.71829551562500 
 N -4.19215387812500 4.35622631875000 3.32899651562500 
 N -4.75988487812500 1.22281131875000 7.44277151562500 
 N -5.15113887812500 4.82900631875000 7.16846051562500 
 S -5.54772887812500 0.535405318750000 6.13036751562500 
 S -5.78428887812500 4.06648031875000 5.83873951562500 
 S -2.88692287812500 0.968845318750000 3.07270951562500 
 S -2.77377187812500 5.10626931875000 2.98069751562500 
 S -3.23698987812500 1.91034131875000 7.09634851562500 
 S -3.63193987812500 5.56923531875000 6.98305151562500 
