16

 C -2.80898126562500 1.43815640312501 5.83870794375000 
 C -3.40968226562500 5.41854840312501 5.57508894375000 
 C -4.07991426562500 1.40940040312501 5.18609494375000 
 C -4.63197126562500 4.99735940312501 4.92253694375000 
 N -1.78701826562500 1.50602340312501 4.99008394375000 
 N -2.35097326562500 5.58705340312501 4.77749094375000 
 N -4.04722226562500 1.32701240312501 3.86327094375000 
 N -4.47955026562500 4.71799440312501 3.61020094375000 
 N -4.57884926562500 1.33239240312501 7.70704594375000 
 N -5.10028126562500 5.03188440312501 7.50429294375000 
 S -5.44322026562500 1.34374740312501 6.31100694375000 
 S -5.98010026562500 4.74985840312501 6.09696394375000 
 S -2.48823226562500 1.42528840312501 3.40237194375000 
 S -2.89532526562500 5.11307140312501 3.24360094375000 
 S -2.91645726562500 1.53664640312501 7.57966494375000 
 S -3.43080526562500 5.25575540312501 7.30661194375000 
