16

 C -3.36781129375000 1.29079391875000 5.42456328437500 
 C -3.28633729375000 5.14815291875000 5.79125128437500 
 C -4.58468329375000 0.831080918750000 4.72469828437500 
 C -4.53787729375000 4.71992691875000 5.17969828437500 
 N -2.33719029375000 1.63113691875000 4.66230828437500 
 N -2.26192429375000 5.22769991875000 4.98272228437500 
 N -4.48940029375000 0.989269918750000 3.39041028437500 
 N -4.49892429375000 4.72924091875000 3.86018928437500 
 N -5.26076029375000 0.939723918749999 7.14404928437500 
 N -5.05602929375000 4.85727791875000 7.73889128437500 
 S -5.96298929375000 0.426135918750000 5.72150828437500 
 S -5.77297129375000 4.37950091875000 6.30065228437500 
 S -2.93628929375000 1.34990991875000 3.08135328437500 
 S -2.85005729375000 5.06822891875000 3.46241328437500 
 S -3.65005329375000 1.41111191875000 7.14078728437500 
 S -3.42680529375000 5.21499391875000 7.56631528437500 
