16

 C -3.11423793125000 1.17982114375000 5.50649225312500 
 C -3.07561093125000 4.66461314375000 5.54898825312500 
 C -4.22809093125000 0.486391143750001 4.86827525312500 
 C -4.28283593125000 4.30191714375000 4.89304825312500 
 N -2.06414793125000 1.44788814375000 4.73078525312500 
 N -2.04949093125000 4.80668314375000 4.71703025312500 
 N -3.97420593125000 0.339760143750001 3.57052825312500 
 N -4.15160993125000 4.12444314375000 3.58819825312500 
 N -4.98496993125000 1.05872514375000 7.25611425312500 
 N -4.96021493125000 5.18021314375000 7.26384925312500 
 S -5.65220893125000 0.338822143750001 5.91476525312500 
 S -5.68519493125000 4.42357214375000 5.94357725312500 
 S -2.52178693125000 1.06422114375000 3.18871425312500 
 S -2.58880093125000 4.49520614375000 3.16482525312500 
 S -3.45482193125000 1.64909314375000 7.12650625312500 
 S -3.29317593125000 5.38232314375000 7.17651025312500 
