16

 C -3.12772127812500 1.30281583437499 5.32304724062500 
 C -2.86445027812500 5.03977383437499 5.66091824062500 
 C -4.31020327812500 0.761372834374995 4.62860024062500 
 C -4.06908527812500 4.44912283437499 5.16879824062500 
 N -2.11271227812500 1.57644683437499 4.51534224062500 
 N -1.90230727812500 5.24237283437500 4.75270424062500 
 N -4.12658827812500 0.722572834374995 3.32904824062500 
 N -4.03714427812500 4.21020683437500 3.86779324062500 
 N -4.86331227812500 0.715164834374995 7.08714824062500 
 N -4.51947127812500 4.62604183437499 7.63988224062500 
 S -5.59341127812500 0.303125834374995 5.62539324062500 
 S -5.41046027812500 4.49680083437499 6.24848024062500 
 S -2.63362527812500 1.32098183437499 2.95833224062500 
 S -2.62186127812500 4.82559583437500 3.29995824062500 
 S -3.32493927812500 1.37232283437500 7.02141424062500 
 S -2.97466627812500 5.15767183437499 7.38689824062500 
