16

 C -2.92955538750000 1.26423058125000 5.66452019062500 
 C -2.90570538750000 4.85244758125000 5.42088919062500 
 C -4.26928938750000 1.15730558125000 5.10589819062500 
 C -4.18230038750000 4.61167058125000 4.75914819062500 
 N -1.94648038750000 1.09151058125000 4.82127619062500 
 N -1.82681738750000 4.82200058125000 4.63495819062500 
 N -4.23963138750000 0.865232581250003 3.81408619062500 
 N -3.97098938750000 4.34701558125000 3.48207519062500 
 N -4.50970338750000 1.46469258125000 7.63522119062500 
 N -4.76971838750000 4.81252458125000 7.28059419062500 
 S -5.47762238750000 1.48096758125000 6.31654319062500 
 S -5.56295438750000 4.46068158125000 5.77517319062500 
 S -2.64813738750000 0.632829581250002 3.39895319062500 
 S -2.35257338750000 4.39244858125000 3.09340319062500 
 S -2.90528038750000 1.57409058125000 7.43013319062500 
 S -3.13209038750000 4.97542958125000 7.16971119062500 
