16

 C -2.81850132187500 1.30572348125000 5.67435030937500 
 C -2.94244332187500 4.87127048125000 5.38657930937500 
 C -4.17506432187500 1.17700648125000 5.22147530937500 
 C -4.18474132187500 4.52897748125000 4.67055330937500 
 N -1.94007332187500 0.949422481250003 4.75164030937500 
 N -1.84330632187500 4.90522348125000 4.65273130937500 
 N -4.34028932187500 0.691801481250002 4.01081230937500 
 N -4.00862632187500 4.29064248125000 3.36301930937500 
 N -4.57241632187500 1.68479648125000 7.70666130937500 
 N -4.70946032187500 4.89648648125000 7.22670830937500 
 S -5.49359932187500 1.41515848125000 6.29566930937500 
 S -5.55836132187500 4.53763048125000 5.90293130937500 
 S -2.86744932187500 0.580267481250003 3.39528230937500 
 S -2.35307832187500 4.50135748125000 3.14933030937500 
 S -2.88202932187500 1.53134348125000 7.42971630937500 
 S -3.03176632187500 4.82744648125000 7.09914030937500 
