16

 C -3.05435807812500 1.60874339687500 5.37882510937500 
 C -3.25247307812500 5.14184139687500 5.56259710937500 
 C -4.33855207812500 1.06082939687500 4.86252810937500 
 C -4.45629707812500 4.68963939687500 4.91697910937500 
 N -1.99678207812500 1.62783239687500 4.58282110937500 
 N -2.20308107812500 5.34338739687500 4.76959010937500 
 N -4.23788207812500 0.715974396875001 3.60070610937500 
 N -4.33507507812500 4.68336839687500 3.59358710937500 
 N -4.64218307812500 1.15797639687500 7.37308810937500 
 N -4.99224107812500 4.84099839687500 7.44908210937500 
 S -5.59903007812500 1.03508639687500 6.03694310937500 
 S -5.79796307812500 4.33067939687500 6.02123910937500 
 S -2.70163807812500 1.14111239687500 3.14721810937500 
 S -2.72253407812500 5.06359639687500 3.26026410937500 
 S -3.10920207812500 1.75300439687500 7.09230310937500 
 S -3.32282907812500 5.06136839687500 7.28996410937500 
