16

 C -2.90940573750000 1.63960945312500 5.37532723437500 
 C -3.22626073750000 5.12604845312500 5.61461623437500 
 C -4.17376073750000 1.22520945312500 4.82154923437500 
 C -4.44488373750000 4.74848545312500 4.93524923437500 
 N -1.92832173750000 1.69974745312500 4.50406123437500 
 N -2.20692473750000 5.24083245312500 4.78568323437500 
 N -4.25951173750000 1.11862745312500 3.48587223437500 
 N -4.39434473750000 4.72738445312500 3.60522923437500 
 N -4.63451273750000 1.63728545312500 7.42084023437500 
 N -4.94783473750000 4.62523345312500 7.49867823437500 
 S -5.44150073750000 1.16849845312500 6.08807823437500 
 S -5.72786873750000 4.43500745312500 6.00157923437500 
 S -2.65186273750000 1.26169845312500 3.00189023437500 
 S -2.77242373750000 4.98500745312500 3.23213623437500 
 S -3.03900673750000 1.98354445312500 7.13750423437500 
 S -3.39365473750000 5.20727445312500 7.38756823437500 
