16

 C -3.17791159062500 1.19848162187500 5.37544161250000 
 C -2.85292059062500 5.30681462187500 5.41661961250000 
 C -4.44632359062500 0.820049621875000 4.82005861250000 
 C -3.99057659062500 4.80193962187500 4.72574561250000 
 N -2.17238559062500 1.11779162187500 4.50055961250000 
 N -1.77415559062500 5.36603162187500 4.64781861250000 
 N -4.46774159062500 0.474020621875000 3.51787361250000 
 N -3.88438659062500 4.70811262187500 3.40240761250000 
 N -4.78936859062500 1.03862462187500 7.33152861250000 
 N -4.66639159062500 4.78724462187500 7.16693561250000 
 S -5.72315359062500 0.864235621875000 5.96694661250000 
 S -5.39328059062500 4.60730462187500 5.71266861250000 
 S -2.90569859062500 0.684064621875001 3.07439561250000 
 S -2.29868259062500 5.01841662187500 3.08758361250000 
 S -3.19525059062500 1.63676462187500 7.09643561250000 
 S -3.10673259062500 5.39027062187500 7.09331461250000 
