16

 C -3.12956211875000 1.30142934375000 5.37820071875000 
 C -3.10913311875000 4.89247734375000 5.50759171875000 
 C -4.31842011875000 0.558958343749998 4.80501371875000 
 C -4.40848811875000 4.63479734375000 4.95825871875000 
 N -2.22411111875000 1.64455834375000 4.47660671875000 
 N -2.16206511875000 4.99250934375000 4.57846371875000 
 N -4.18407911875000 0.276577343749998 3.49996971875000 
 N -4.48770611875000 4.53418934375000 3.62342971875000 
 N -4.89343211875000 1.18609834375000 7.29674571875000 
 N -4.78851111875000 4.80688434375000 7.51229871875000 
 S -5.55285211875000 0.319115343749998 6.05830471875000 
 S -5.68773511875000 4.57977834375000 6.11957271875000 
 S -2.70210611875000 0.920397343749998 3.03085671875000 
 S -2.92114911875000 4.71761134375000 3.08793971875000 
 S -3.37818111875000 1.84843934375000 6.99744471875000 
 S -3.15451011875000 5.29608634375000 7.23979771875000 
