16

 C -3.16369086562500 1.35953033125000 5.50327566562500 
 C -3.13547986562500 5.18762033125000 5.53752066562500 
 C -4.27399186562500 0.761359331250003 4.84609766562500 
 C -4.21952286562500 4.57934933125000 4.87449466562500 
 N -2.11515386562500 1.69105333125000 4.69701366562500 
 N -2.02565386562500 5.36995933125000 4.82942266562500 
 N -4.12839086562500 0.620365331250002 3.53488966562500 
 N -4.02794886562500 4.43708233125000 3.54590266562500 
 N -4.93680486562500 0.888848331250002 7.30617666562500 
 N -5.21067986562500 5.11666433125000 7.13632966562500 
 S -5.63439186562500 0.364730331250002 5.84620666562500 
 S -5.63229686562500 4.22565233125000 5.80973366562500 
 S -2.63315486562500 1.31670133125000 3.19945366562500 
 S -2.44467186562500 4.88832033125000 3.29009066562500 
 S -3.37983986562500 1.52706733125000 7.15194666562500 
 S -3.59038386562500 5.59238733125000 7.21085166562500 
