16

 C -3.36490873437500 1.29960963125000 5.27006795312500 
 C -3.11275773437500 5.07651663125000 5.45225795312500 
 C -4.60076373437500 0.879539631250001 4.68601795312500 
 C -4.38231973437500 5.12191763125000 4.74913295312500 
 N -2.37062673437500 1.41732763125000 4.43238195312500 
 N -2.04414473437500 5.33984963125000 4.67849895312500 
 N -4.55098573437500 0.596702631250001 3.39604995312500 
 N -4.23519373437500 5.18215463125000 3.38795395312500 
 N -4.99361673437500 1.13260063125000 7.18641595312500 
 N -4.99799673437500 4.81928763125000 7.22509295312500 
 S -5.73771273437500 0.560174631250001 5.86290995312500 
 S -5.86828573437500 4.99524763125000 5.73380895312500 
 S -2.98452473437500 1.05371663125000 2.92034495312500 
 S -2.60128373437500 5.45125163125000 3.12251095312500 
 S -3.39351673437500 1.58695363125000 6.98989195312500 
 S -3.34922773437500 5.12384063125000 7.15624995312500 
