16

 C -2.83897710000000 1.71561310000000 5.30300736562500 
 C -3.33384710000000 5.11679710000000 5.60323036562500 
 C -4.06496810000000 1.10364910000000 4.79246136562500 
 C -4.48359410000000 4.58496410000000 4.89291436562500 
 N -1.92733510000000 1.97885310000000 4.35604936562500 
 N -2.29092510000000 5.29636910000000 4.79250536562500 
 N -3.91741110000000 0.833460100000000 3.47876836562500 
 N -4.36240410000000 4.54541510000000 3.55077436562500 
 N -4.26431710000000 1.07840910000000 7.35256136562500 
 N -5.03635210000000 4.49008910000000 7.45756536562500 
 S -5.14830910000000 0.571562100000000 6.04043536562500 
 S -5.73785010000000 4.00092810000000 6.01155136562500 
 S -2.42435210000000 1.36537010000000 2.89399936562500 
 S -2.82756610000000 5.05615010000000 3.21818936562500 
 S -2.80379410000000 1.71795210000000 7.00306436562500 
 S -3.46854610000000 4.92389710000000 7.35949436562500 
