16

 C -3.01843980937500 1.42867086562500 5.54407312187500 
 C -3.22962880937500 5.03766086562500 5.41237412187500 
 C -4.21096380937500 0.880173865624998 4.77659512187500 
 C -4.44988280937500 4.49539786562500 4.89382512187500 
 N -1.97033380937500 1.63672186562500 4.76135512187500 
 N -2.22840880937500 5.15643986562500 4.56487112187500 
 N -4.00839380937500 0.643094865624998 3.48108012187500 
 N -4.42467880937500 4.30088086562500 3.58695812187500 
 N -4.99337980937500 1.36369686562500 7.18923312187500 
 N -4.89959580937500 5.22834586562500 7.30901412187500 
 S -5.65737380937500 0.874191865624998 5.70623312187500 
 S -5.74181680937500 4.48938886562500 6.07889312187500 
 S -2.43256480937500 1.05161486562500 3.21879212187500 
 S -2.85338180937500 4.63428386562500 3.09077312187500 
 S -3.37853480937500 1.88277386562500 7.15326012187500 
 S -3.31813780937500 5.56333386562500 7.01391312187500 
