16

 C -3.17238670625000 1.13746056562500 5.52120611875000 
 C -3.11233170625000 5.40512756562500 5.62445011875000 
 C -4.44859970625000 0.791637565625002 4.88471111875000 
 C -4.31037170625000 4.96006056562500 4.91797811875000 
 N -2.13189370625000 1.43287356562500 4.67922511875000 
 N -2.13100070625000 5.87298556562500 4.80539211875000 
 N -4.33675470625000 0.714996565625001 3.54331811875000 
 N -4.14276870625000 4.85389856562500 3.60416211875000 
 N -4.99143470625000 0.960937565625001 7.39178911875000 
 N -4.83299170625000 4.76337256562500 7.46568911875000 
 S -5.77604070625000 0.461759565625002 6.04813511875000 
 S -5.51011570625000 4.35083356562500 5.98065411875000 
 S -2.77424970625000 1.06290456562500 3.13581511875000 
 S -2.64003070625000 5.59764156562500 3.26827611875000 
 S -3.32143870625000 1.24500756562500 7.24459711875000 
 S -3.37038270625000 5.48556856562500 7.35089611875000 
