16

 C -3.23703845000000 1.39014890937500 5.52380180312500 
 C -3.14066445000000 5.06600990937500 5.66929080312500 
 C -4.45241145000000 0.841299909374999 5.01489280312500 
 C -4.28237545000000 4.37131790937500 5.11835080312500 
 N -2.27002245000000 1.41976990937500 4.65287880312500 
 N -2.11999445000000 5.10946090937500 4.83410380312500 
 N -4.42418145000000 0.502831909374999 3.71564980312500 
 N -4.24887045000000 4.13515590937500 3.82217480312500 
 N -4.88548045000000 1.27802790937500 7.58011280312500 
 N -4.95431545000000 4.78458290937500 7.54935180312500 
 S -5.73081245000000 0.885920909374999 6.15328380312500 
 S -5.67827845000000 4.26387290937500 6.15877580312500 
 S -2.86548145000000 0.833215909374999 3.18932480312500 
 S -2.75799645000000 4.64572990937500 3.33769880312500 
 S -3.27357345000000 1.76141690937500 7.30378680312500 
 S -3.34249045000000 5.22365290937500 7.39030280312500 
