16

 C -3.15319123750000 1.39081109062500 5.27948452812500 
 C -3.00768123750000 5.19201309062500 5.55084252812500 
 C -4.36887323750000 0.889202090625000 4.61640352812500 
 C -4.28851823750000 4.78136709062500 5.05603652812500 
 N -2.19352923750000 1.79089609062500 4.42079152812500 
 N -2.03895523750000 5.22369909062500 4.66430552812500 
 N -4.26667323750000 1.00332309062500 3.29958452812500 
 N -4.27423223750000 4.54384109062500 3.76245552812500 
 N -4.69279623750000 0.543805090625000 7.17034252812500 
 N -4.62787423750000 5.05352009062500 7.58903852812500 
 S -5.46847823750000 0.253195090625000 5.75667952812500 
 S -5.45976623750000 4.45112409062500 6.27315852812500 
 S -2.72993223750000 1.59323909062500 2.90294852812500 
 S -2.73815023750000 4.85807609062500 3.22332452812500 
 S -3.22900323750000 1.25852209062500 6.99976552812500 
 S -3.04623423750000 5.55546909062500 7.23757552812500 
