16

 C -2.85139419687500 1.27607282812500 5.79796960312500 
 C -3.11462219687500 4.70125682812500 5.55512260312500 
 C -4.08435619687500 1.09868682812500 5.03625460312500 
 C -4.24721719687500 4.31506382812500 4.74516160312500 
 N -1.81884819687500 1.38190682812500 4.98969060312500 
 N -1.94986219687500 4.72714482812500 4.89645660312500 
 N -4.05840019687500 1.10165682812500 3.74131060312500 
 N -3.97870019687500 4.13340482812500 3.44672160312500 
 N -4.91697319687500 1.62612182812500 7.47722660312500 
 N -5.02851019687500 4.93878482812500 7.17600260312500 
 S -5.49138519687500 1.19145282812500 5.95908160312500 
 S -5.75764519687500 4.33172682812499 5.79178760312500 
 S -2.37989619687500 1.15245982812500 3.38968660312500 
 S -2.27243019687500 4.37449282812500 3.33095760312500 
 S -3.19557919687500 1.55804082812500 7.52450260312500 
 S -3.42601019687500 5.04196982812500 7.17650260312500 
