16

 C -3.25813824375000 1.65161582812500 5.40518625937500 
 C -3.02622124375000 4.93504682812500 5.54476225937500 
 C -4.41902324375000 1.32219682812500 4.66691625937500 
 C -4.26837424375000 4.60624682812500 4.86064825937500 
 N -2.19411724375000 1.89865482812500 4.64992725937500 
 N -1.99164224375000 5.09562782812500 4.73844325937500 
 N -4.26440824375000 1.20967982812500 3.35878425937500 
 N -4.17274124375000 4.50810382812500 3.55763425937500 
 N -4.90874124375000 1.07764482812500 7.22071325937500 
 N -4.84391024375000 4.83528982812500 7.29517225937500 
 S -5.70711824375000 0.932650828124999 5.71873325937500 
 S -5.70415724375000 4.62054782812500 5.91434325937500 
 S -2.67122524375000 1.65349482812500 3.04313925937500 
 S -2.58436024375000 4.91040482812500 3.19881525937500 
 S -3.37713524375000 1.68414582812500 7.16119725937500 
 S -3.21361524375000 5.12358882812500 7.22676825937500 
