16

 C -2.92314298437500 1.25249851562500 5.29153979062500 
 C -2.92038098437500 5.12598551562500 5.59596479062500 
 C -4.07689098437500 0.683617515625000 4.62112279062500 
 C -4.13958798437500 4.53534451562500 5.15015179062500 
 N -1.94395298437500 1.63385051562500 4.47025079062500 
 N -2.00653398437500 5.35806151562500 4.68862679062500 
 N -4.03751098437500 0.655561515625001 3.26944479062500 
 N -4.16728498437500 4.26091851562500 3.86142679062500 
 N -4.73512098437500 0.661699515625001 7.17939779062500 
 N -4.36672198437500 4.91561551562500 7.69424379062500 
 S -5.43768398437500 0.264136515625001 5.69923979062500 
 S -5.33192498437500 4.50766151562500 6.43734579062500 
 S -2.50915398437500 1.28368351562500 2.93533479062500 
 S -2.64987398437500 4.84632451562500 3.28360879062500 
 S -3.18037198437500 1.30055151562500 7.06273779062500 
 S -2.80427898437500 5.27176051562500 7.28608579062500 
