16

 C -3.32105327812500 1.26378587812500 5.52748875937500 
 C -3.28025827812500 4.99561087812500 5.13894175937500 
 C -4.57220827812500 0.928790878125003 4.85643775937500 
 C -4.43977927812500 4.38166787812500 4.52602775937500 
 N -2.27503127812500 1.27527487812500 4.70306475937500 
 N -2.29412427812500 5.21480287812500 4.30818975937500 
 N -4.49978027812500 0.887804878125003 3.52626975937500 
 N -4.26958327812500 4.07394287812500 3.26704775937500 
 N -5.16076227812500 1.09974387812500 7.33101375937500 
 N -4.95611327812500 4.91617987812500 7.03141875937500 
 S -5.91825327812500 0.671348878125003 5.89590775937500 
 S -5.76466427812500 4.43153387812500 5.64849575937500 
 S -2.86331627812500 1.15726387812500 3.17818575937500 
 S -2.70732727812500 4.59739187812500 2.84694775937500 
 S -3.56287627812500 1.45917987812500 7.25457475937500 
 S -3.38168527812500 5.27699787812500 6.79688075937500 
