16

 C -2.99806888750000 1.33044988125000 5.64218457812500 
 C -3.18685388750000 5.23427388125000 5.37462357812500 
 C -4.17573188750000 0.759136881250001 5.00046257812500 
 C -4.17799888750000 4.28843288125000 4.97062957812500 
 N -1.88825688750000 1.44218688125000 4.90852657812500 
 N -2.16798688750000 5.42699788125000 4.50136757812500 
 N -3.97510588750000 0.537075881250001 3.68647257812500 
 N -3.97436888750000 3.88900888125000 3.69557257812500 
 N -4.79119488750000 0.988716881250000 7.48704657812500 
 N -4.90791788750000 5.17117188125000 7.27640557812500 
 S -5.55019888750000 0.501670881250001 6.07514557812500 
 S -5.48123288750000 4.09869788125000 6.06808557812500 
 S -2.44876788750000 0.974433881250000 3.37637957812500 
 S -2.51041988750000 4.50501288125000 3.22015057812500 
 S -3.30784588750000 1.56573988125000 7.27536557812500 
 S -3.38831588750000 5.93133188125000 6.94934457812500 
