16

 C -2.90058450625000 1.70729233125000 5.42240280937500 
 C -3.19532550625000 5.08089133125000 5.61364080937500 
 C -4.19777450625000 1.37330033125000 4.87805580937500 
 C -4.43617350625000 4.66929433125000 5.01063380937500 
 N -1.92961050625000 1.71760033125000 4.54198980937500 
 N -2.15018050625000 5.25145633125000 4.79533180937500 
 N -4.17026950625000 1.05920833125000 3.58801480937500 
 N -4.30563950625000 4.58661433125000 3.67943280937500 
 N -4.55227950625000 1.87825033125000 7.35237380937500 
 N -4.92571350625000 4.79451333125000 7.51441580937500 
 S -5.47192750625000 1.23819333125000 6.06779480937500 
 S -5.84133650625000 4.49663033125000 6.12909980937500 
 S -2.63262250625000 1.46889733125000 3.09028780937500 
 S -2.73997150625000 5.01641333125000 3.30881380937500 
 S -2.86700550625000 1.99599733125000 7.08960080937500 
 S -3.34339850625000 5.23647433125000 7.29714980937500 
