16

 C -3.08980459375000 1.50917391562500 5.43836729375000 
 C -3.06299359375000 5.15881391562500 5.46740229375000 
 C -4.36227859375000 1.30603591562500 4.75247729375000 
 C -4.32932559375000 4.92120791562500 4.82022829375000 
 N -2.05611259375000 1.70304191562500 4.61722129375000 
 N -2.03001059375000 5.42976691562500 4.67717229375000 
 N -4.31776759375000 1.40315291562500 3.41146329375000 
 N -4.20192359375000 4.95212891562500 3.48509829375000 
 N -4.91407559375000 1.36945591562500 7.28865129375000 
 N -4.70939559375000 4.90001791562500 7.38404829375000 
 S -5.74702659375000 1.29385591562500 5.86214829375000 
 S -5.57814659375000 4.65510391562500 6.03004129375000 
 S -2.76650059375000 1.56817691562500 3.07483829375000 
 S -2.62196159375000 5.27573291562500 3.16320729375000 
 S -3.25591159375000 1.60067591562500 7.18975229375000 
 S -3.07157659375000 5.06777291562500 7.21227029375000 
