16

 C -3.30382982500000 1.38533112187500 5.62565382500000 
 C -3.38118682500000 5.14151612187500 5.25114682500000 
 C -4.52654682500000 1.06827312187500 4.94913982500000 
 C -4.51304482500000 4.51514912187500 4.64617582500000 
 N -2.22095382500000 1.55687012187500 4.83052982500000 
 N -2.31283982500000 5.26375712187500 4.46547482500000 
 N -4.43492282500000 0.845946121875000 3.62042982500000 
 N -4.38178882500000 4.33773412187500 3.32682182500000 
 N -5.21028982500000 1.01050512187500 7.46463282500000 
 N -5.00734782500000 4.66880612187500 7.18174682500000 
 S -5.92894182500000 0.754250121875000 6.00540282500000 
 S -5.77671782500000 4.32227612187500 5.79269882500000 
 S -2.85036182500000 1.18246712187500 3.30258682500000 
 S -2.82981282500000 4.89070312187500 2.92435482500000 
 S -3.61687582500000 1.46791412187500 7.34997582500000 
 S -3.47438882500000 5.28674012187500 6.99857182500000 
