16

 C -3.25719845937500 1.67472571562500 5.75267027187500 
 C -3.15493045937500 5.31131971562500 5.84799827187500 
 C -4.39983945937500 1.17271871562500 5.11425227187500 
 C -4.35822045937500 4.77403171562500 5.21340927187500 
 N -2.15992845937501 1.82612271562500 4.97975327187500 
 N -2.09671845937500 5.46210571562500 5.08666127187500 
 N -4.17196445937500 0.910376715624999 3.80504427187500 
 N -4.18269945937501 4.50863971562500 3.89256627187500 
 N -5.05349145937500 1.17879971562500 7.60835427187500 
 N -4.74174045937500 4.84348471562500 7.74593927187500 
 S -5.70270945937501 0.705814715624999 6.11241227187500 
 S -5.54193645937501 4.39051371562500 6.41892827187500 
 S -2.67561645937500 1.36820271562500 3.45267527187500 
 S -2.61362045937501 4.99097671562500 3.60018727187500 
 S -3.56901745937501 1.89775271562500 7.47500627187500 
 S -3.25128845937500 5.60802271562500 7.54295027187500 
