16

 C -3.03801771875000 1.43137537812500 5.65568518437500 
 C -2.92889071875000 5.23048537812500 5.43370518437500 
 C -4.31764071875000 1.07095137812500 5.09314218437500 
 C -4.14361071875000 4.83943037812500 4.82916018437500 
 N -2.08382471875000 1.56658537812500 4.77327918437500 
 N -1.92979471875000 5.48754337812500 4.55901218437500 
 N -4.28700771875000 0.992029378125000 3.78124518437500 
 N -4.07851871875000 4.80789037812500 3.49681918437500 
 N -4.75247671875000 1.41951537812500 7.61113718437500 
 N -4.61156071875000 4.91824637812500 7.29123418437500 
 S -5.56654471875000 0.876526378125000 6.27613618437500 
 S -5.47690271875000 4.57751037812500 5.95789718437500 
 S -2.76387471875000 1.33511937812500 3.26695018437500 
 S -2.51794671875000 5.18381737812500 3.01834018437500 
 S -3.12872471875000 1.69867137812500 7.35742618437500 
 S -3.04365971875000 5.45830737812500 7.15958718437500 
