16

 C -3.22954146562500 1.57573622500000 5.62141833437500 
 C -2.99706446562500 5.27273922500000 5.89431433437500 
 C -4.28441146562500 0.833196224999998 4.94820033437500 
 C -4.19839846562500 4.70057222500000 5.34982833437500 
 N -2.33277246562500 2.07932222500000 4.82648333437500 
 N -2.06453946562500 5.65470922500000 4.98135733437500 
 N -4.07669046562500 0.785408224999998 3.62391933437500 
 N -4.15910946562500 4.47077822500000 4.01046333437500 
 N -5.04905846562500 1.11360622500000 7.47872433437500 
 N -4.73593646562500 4.97936122500000 7.79369533437500 
 S -5.66214846562500 0.597468224999998 5.96095133437500 
 S -5.50830246562500 4.56009222500000 6.50256733437500 
 S -2.65145446562500 1.50537222500000 3.31245933437500 
 S -2.70867046562500 5.10587322500000 3.52361633437500 
 S -3.51138346562500 1.80452222500000 7.36714833437500 
 S -3.19403846562500 5.51323622500000 7.64607933437500 
