16

 C -3.21376906250000 1.35956172187500 5.30628815625000 
 C -3.07318806250000 4.97054172187500 5.37746115625000 
 C -4.44124706250000 0.962179721875002 4.69602715625000 
 C -4.35339606250000 5.08530272187500 4.76090615625000 
 N -2.25389906250000 1.72330572187500 4.48339515625000 
 N -2.00421206250000 5.14685072187500 4.59669515625000 
 N -4.40298106250000 0.861062721875002 3.38061215625000 
 N -4.27248006250000 5.15409572187500 3.41625715625000 
 N -5.00679306250000 1.23637072187500 7.17759115625000 
 N -4.87340406250000 4.77879272187500 7.23649115625000 
 S -5.77565306250000 0.720198721875002 5.82845715625000 
 S -5.74956806250000 4.87560772187500 5.76973915625000 
 S -2.82790206250000 1.29419572187500 2.90853115625000 
 S -2.64420706250000 5.26474672187500 3.06858415625000 
 S -3.41884506250000 1.55466772187500 6.98905315625000 
 S -3.20621706250000 4.94160072187500 7.08793515625000 
