16

 C -3.19594157187500 1.35719801562500 5.72502821875000 
 C -3.25115257187500 5.41984301562500 5.55064321875000 
 C -4.50722457187500 1.10660901562500 5.08462221875000 
 C -4.40684257187500 4.87928501562500 4.85752521875000 
 N -2.17759057187500 1.35205601562500 4.89007121875000 
 N -2.23913257187500 5.64578301562500 4.74084521875000 
 N -4.47778457187500 1.00790401562500 3.74750321875000 
 N -4.20897957187500 4.59204201562500 3.57621721875000 
 N -4.97598857187500 1.31066801562500 7.60863621875000 
 N -4.93284257187500 5.03234901562500 7.38258721875000 
 S -5.83843357187500 1.06913201562500 6.15713821875000 
 S -5.69101857187500 4.51916801562500 5.96892921875000 
 S -2.86539157187500 0.989160015624998 3.41235221875000 
 S -2.65989057187500 5.06293301562500 3.22590821875000 
 S -3.28767857187500 1.42364901562500 7.40517921875000 
 S -3.31420357187500 5.41473001562500 7.31147921875000 
