16

 C -2.90564071562500 1.37669865625000 5.74412050312500 
 C -3.11816171562500 5.14187165625000 5.47888850312500 
 C -4.22130571562500 1.02780165625000 5.16498850312500 
 C -4.43386171562500 4.84982465625000 4.93742750312500 
 N -1.89899471562500 1.15244365625000 4.86592450312500 
 N -2.08588771562500 5.11370065625000 4.57906950312500 
 N -4.09145071562500 0.522942656250000 3.94112950312500 
 N -4.37957571562500 4.42572565625000 3.67746450312500 
 N -4.72860571562500 1.50253465625000 7.68778950312500 
 N -4.84266271562500 4.98223765625000 7.53944750312500 
 S -5.52142671562500 0.921972656250000 6.35870150312500 
 S -5.65404971562500 4.52372865625000 6.10814550312500 
 S -2.50280571562500 0.573527656250000 3.44631350312500 
 S -2.81446071562500 4.55087665625000 3.18187850312500 
 S -3.10387771562500 1.88051365625000 7.44546550312500 
 S -3.24550371562500 5.25850165625000 7.22965350312500 
