16

 C -3.20424708437500 1.60849896250000 5.64891740000000 
 C -2.96513908437500 5.44514696250000 5.51689940000000 
 C -4.38148708437500 1.25779896250000 4.84550240000000 
 C -4.25220508437500 4.97143296250000 4.98578640000000 
 N -2.14129008437500 1.89335996250000 4.90512640000000 
 N -1.96075008437500 5.38015496250000 4.64604040000000 
 N -4.18735408437500 1.29013896250000 3.54088240000000 
 N -4.23746408437500 4.76577496250000 3.68630540000000 
 N -5.03821208437500 0.769186962500000 7.25632640000000 
 N -4.77497108437500 5.16995796250000 7.42094940000000 
 S -5.76340208437500 0.769785962500000 5.71175640000000 
 S -5.57546708437500 4.85793596250000 6.05054140000000 
 S -2.63330608437500 1.72683696250000 3.28690940000000 
 S -2.67762108437500 5.00068396250000 3.17790640000000 
 S -3.41701708437500 1.25571896250000 7.29138140000000 
 S -3.20937708437500 5.44314996250000 7.26097240000000 
