16

 C -3.24454063125000 1.54157327500000 5.56704631875000 
 C -3.00391163125000 5.34475727500000 5.60276431875000 
 C -4.38232363125000 1.28851527500000 4.77723531875000 
 C -4.26119563125000 5.06290027500000 4.99383131875000 
 N -2.13559563125000 1.83829827500000 4.87294931875000 
 N -2.00382763125000 5.44458027500000 4.70643331875000 
 N -4.20303863125000 1.19233827500000 3.46188531875000 
 N -4.21065263125000 4.79982727500000 3.69642231875000 
 N -5.01488463125000 0.669122274999999 7.19635831875000 
 N -4.79726963125000 5.07057527500000 7.50282131875000 
 S -5.69356563125000 0.741333275000000 5.74216531875000 
 S -5.67198863125000 4.92936927500000 6.04665631875000 
 S -2.63008663125000 1.71814627500000 3.27032831875000 
 S -2.65764063125000 4.99439227500000 3.19773131875000 
 S -3.50067563125000 1.34161427500000 7.34061931875000 
 S -3.14227163125000 5.52849127500000 7.34151531875000 
