16

 C -3.23403236562500 1.19282240000000 5.59885289375000 
 C -3.27851636562500 4.94376240000000 5.56115189375000 
 C -4.43126336562500 0.867816400000002 4.88804089375000 
 C -4.43467236562500 4.46779740000000 4.90204389375000 
 N -2.18299936562500 1.42156740000000 4.82399889375000 
 N -2.30049936562500 5.18073840000000 4.68040789375000 
 N -4.31214436562500 0.932161400000002 3.50993689375000 
 N -4.41485336562500 4.46438140000000 3.58291889375000 
 N -4.96399336562500 1.27225340000000 7.45718289375000 
 N -5.27525636562500 4.77334140000000 7.26835289375000 
 S -5.74612836562500 0.877099400000002 6.01468489375000 
 S -5.80343736562500 4.11026640000000 5.86624889375000 
 S -2.62780036562500 1.20646940000000 3.28957589375000 
 S -2.88236936562500 4.94250540000000 3.13438289375000 
 S -3.29668836562500 1.60477340000000 7.20335689375000 
 S -3.64822836562500 5.10538840000000 7.32452089375000 
