16

 C -3.21143538437500 1.16088050625000 5.38000823125000 
 C -3.02335338437500 5.31368150625000 5.62810823125000 
 C -4.33903838437500 0.507186506250002 4.79542023125000 
 C -4.25417738437500 4.79606150625000 4.98102723125000 
 N -2.08319838437500 1.28032650625000 4.66468623125000 
 N -2.01906838437500 5.41570550625000 4.74727123125000 
 N -4.08463738437500 6.534506250002181E-003 3.57437823125000 
 N -4.18649838437500 4.45127850625000 3.73041523125000 
 N -5.03116438437500 1.20320950625000 7.24614923125000 
 N -4.93112238437500 5.16750750625000 7.42870223125000 
 S -5.75970638437500 0.634968506250002 5.80944623125000 
 S -5.67121038437500 4.74529550625000 5.97388923125000 
 S -2.44187738437500 0.480864506250001 3.25918423125000 
 S -2.65571738437500 4.91263750625000 3.27251023125000 
 S -3.43081738437500 1.71101350625000 7.01566923125000 
 S -3.33570838437500 5.66145050625000 7.31522023125000 
