16

 C -3.24040060625000 1.59214742187500 5.44635423750000 
 C -2.97192560625000 5.15628242187500 5.59129123750000 
 C -4.48695260625000 1.08475742187500 4.91260223750000 
 C -4.17462660625000 4.61955042187500 5.00674623750000 
 N -2.23875560625000 1.75342642187500 4.56975023750000 
 N -1.95573760625000 5.16333042187500 4.72182623750000 
 N -4.43999060625000 0.927724421875002 3.63226523750000 
 N -4.11647360625000 4.46053342187500 3.67444923750000 
 N -4.86062160625000 1.32383842187500 7.45893623750000 
 N -4.76966460625000 5.10059942187500 7.53504923750000 
 S -5.77010760625000 0.929422421875002 6.16936223750000 
 S -5.57982360625000 4.70500742187500 6.10868823750000 
 S -2.98099060625000 1.42858542187500 3.06359223750000 
 S -2.52602460625000 4.70743442187500 3.24036923750000 
 S -3.24158560625000 1.74362442187500 7.18091823750000 
 S -3.14328660625000 5.36912142187500 7.26801223750000 
