16

 C -3.15028908125000 1.32925996875000 5.38847631562500 
 C -2.86625708125000 5.18308696875000 5.78234031562500 
 C -4.40933508125000 0.887252968749999 4.67055731562500 
 C -4.06438908125000 4.70218896875000 5.13059931562500 
 N -2.06777508125000 1.55185896875000 4.64458831562500 
 N -1.79574008125000 5.26512396875000 5.02185531562500 
 N -4.25517908125000 0.955473968750000 3.33911831562500 
 N -3.96565608125000 4.56773696875000 3.82515931562500 
 N -4.87519608125000 0.823798968749999 7.17879931562500 
 N -4.66534508125000 5.01149296875000 7.58303431562500 
 S -5.63292108125000 0.363056968750000 5.73146631562500 
 S -5.35823808125000 4.31366996875000 6.27389531562500 
 S -2.70439608125000 1.48501096875000 3.08434731562500 
 S -2.34634808125000 4.91094496875000 3.45396731562500 
 S -3.21726608125000 1.21662896875000 7.06714731562500 
 S -3.07082408125000 5.36790596875000 7.46130131562500 
