16

 C -2.97031111562500 1.19856875937499 5.71633891875000 
 C -2.92930811562500 4.72710175937500 5.44248691875000 
 C -4.28856211562500 1.01962675937499 5.24373891875000 
 C -4.16285911562500 4.48330675937499 4.74727291875000 
 N -2.03693611562500 0.941373759374994 4.76259691875000 
 N -1.91401811562500 4.90795375937499 4.64122391875000 
 N -4.45987511562500 0.631383759374995 3.97768191875000 
 N -4.01847111562500 4.28698675937499 3.47529091875000 
 N -4.49311511562500 1.74835575937499 7.69454491875000 
 N -4.64425411562500 4.87067475937500 7.26983791875000 
 S -5.49339111562500 1.42615175937499 6.42535891875000 
 S -5.49139611562500 4.59247175937499 5.83684491875000 
 S -2.85931011562500 0.552926759374995 3.38230791875000 
 S -2.41199311562500 4.61003975937499 3.10078891875000 
 S -2.89993611562500 1.59494375937499 7.41794391875000 
 S -2.99274011562500 4.79107975937499 7.12745491875000 
