16

 C -3.16438407812500 1.52012899062500 5.62677980312500 
 C -3.26808207812500 5.06283899062500 5.37546880312500 
 C -4.35270307812500 1.13245599062500 4.96320880312500 
 C -4.44265207812500 4.64764699062500 4.64540780312500 
 N -2.10469507812500 1.54560499062500 4.87838480312500 
 N -2.18131507812500 5.05119499062500 4.58948280312500 
 N -4.19310407812500 0.845889990624999 3.70872180312500 
 N -4.27336507812500 4.23084899062500 3.38825680312500 
 N -4.95290607812500 1.31875199062500 7.36272980312500 
 N -5.24827007812500 5.18708999062500 7.05280180312500 
 S -5.74029707812500 1.02738199062500 5.90384380312500 
 S -5.85389107812500 4.63062299062500 5.62632480312500 
 S -2.56046407812500 1.17235299062500 3.31666180312500 
 S -2.65539307812500 4.50211699062500 3.06088680312500 
 S -3.38867307812500 1.79187799062500 7.31487680312500 
 S -3.61682707812500 5.39655999062500 7.06780280312500 
