16

 C -2.94092834687500 1.40261934375000 5.34713344062500 
 C -3.28248034687500 4.94592234375000 5.56001544062500 
 C -4.21850534687500 0.882275343750001 4.76011544062500 
 C -4.40740634687500 4.31082334375000 4.88917344062500 
 N -2.01650034687500 1.65506634375000 4.40668544062500 
 N -2.30119634687500 5.28154334375000 4.71171444062500 
 N -4.22657234687500 0.787949343750001 3.40839944062500 
 N -4.38390434687500 4.42647634375000 3.56202244062500 
 N -4.65732334687500 1.01123134375000 7.32508844062500 
 N -5.01327434687500 4.50983234375000 7.40391244062500 
 S -5.51106334687500 0.733297343750001 5.93729744062500 
 S -5.78398534687500 4.07098334375000 6.02434744062500 
 S -2.74913534687500 1.34904134375000 2.90233944062500 
 S -2.89382034687500 5.08374434375000 3.14454544062500 
 S -3.14539234687500 1.73539934375000 7.10108044062500 
 S -3.42386334687500 5.01184434375000 7.25793444062500 
