16

 C -3.13058777500000 0.923029753124999 5.60956827187500 
 C -3.30959477500000 4.87521075312500 5.25124227187500 
 C -4.41759677500000 0.702766753124999 4.87201027187500 
 C -4.43157377500000 4.25315575312500 4.65945627187500 
 N -2.10935977500000 1.13502775312500 4.83732927187500 
 N -2.21621177500000 5.04004275312500 4.51206727187500 
 N -4.31503777500000 0.829095753124999 3.55788727187500 
 N -4.28473077500000 4.19159575312500 3.31947127187500 
 N -4.92693977500000 0.714436753124999 7.39572827187500 
 N -5.03992777500000 4.68042575312500 7.17088927187500 
 S -5.72714277500000 0.464174753124999 5.93108027187500 
 S -5.77419577500000 4.10346675312500 5.76036827187500 
 S -2.66269477500000 0.937372753124999 3.28995127187500 
 S -2.73557477500000 4.70210275312500 2.97762127187500 
 S -3.24467177500000 0.875080753124999 7.37964427187500 
 S -3.50044677500000 5.36104975312500 6.88834527187500 
