16

 C -3.39948974062500 1.24438582812500 5.93859397187500 
 C -3.09701674062500 5.03389882812500 5.17829697187500 
 C -4.55352174062500 0.927175828125002 5.15810597187500 
 C -4.35534074062500 4.70990082812500 4.53771297187500 
 N -2.31634774062500 1.51680382812500 5.24254197187500 
 N -2.02247274062500 5.09386782812500 4.42730797187500 
 N -4.36392974062500 0.800215828125002 3.85047297187500 
 N -4.17397574062500 4.58902882812500 3.24533897187500 
 N -5.34054574062500 1.05106882812500 7.61695897187500 
 N -4.92816574062500 4.92222982812500 7.01840997187500 
 S -5.94927674062500 0.445115828125002 6.14782697187500 
 S -5.73723574062500 4.51685782812500 5.57533297187500 
 S -2.76394274062500 1.16859982812500 3.67856297187500 
 S -2.54369874062500 4.70225282812500 2.88093697187500 
 S -3.65964074062500 1.22503582812500 7.76056297187500 
 S -3.29875174062500 5.14802382812500 6.91567397187500 
