16

 C -3.31368131250000 1.36647587187500 5.50750644687500 
 C -3.42307731250000 5.05035687187500 5.19399044687500 
 C -4.48849831250000 0.846611871875001 4.93156444687500 
 C -4.63500631250000 4.63678387187500 4.55933644687500 
 N -2.30791031250000 1.60986587187500 4.64219844687500 
 N -2.40590931250000 5.31832987187500 4.37871944687500 
 N -4.44333631250000 0.546862871875001 3.61508644687500 
 N -4.43288331250000 4.35114887187500 3.28438944687500 
 N -5.03003531250000 0.901397871875001 7.54052744687500 
 N -5.12893131250000 4.59652787187500 7.09519344687500 
 S -5.79589931250000 0.615500871875001 6.05292544687500 
 S -5.87072231250000 4.20892087187500 5.64842644687500 
 S -2.93504831250000 1.06451587187500 3.15678344687500 
 S -2.91367531250000 4.84700987187500 2.83201744687500 
 S -3.53468931250000 1.61968887187500 7.29732244687500 
 S -3.56556231250000 5.12975587187500 6.98031944687500 
