16

 C -2.94252249687500 1.20472514375000 5.28487037812500 
 C -2.93296049687500 5.10233514375000 5.60922837812500 
 C -4.14680349687500 0.709842143750000 4.60202637812500 
 C -4.19132849687500 4.52965914375000 5.13158137812500 
 N -1.99418749687500 1.67502814375000 4.48460437812500 
 N -1.98243849687500 5.36070314375000 4.69964437812500 
 N -4.03702649687500 0.687712143750000 3.28468537812500 
 N -4.14477349687500 4.21832414375000 3.83198937812500 
 N -4.72930249687500 0.640064143750000 7.14125837812500 
 N -4.37378149687500 4.99137714375000 7.66341137812500 
 S -5.38685749687500 0.261684143750000 5.70595537812500 
 S -5.37404249687500 4.51956714375000 6.40284237812500 
 S -2.59785049687500 1.39207614375000 2.88987937812500 
 S -2.69665749687500 4.84899014375000 3.29090137812500 
 S -3.19254149687500 1.25138614375000 7.06521637812500 
 S -2.78350549687500 5.30036114375000 7.27361037812500 
