16

 C -3.11172905937500 1.12816456562500 5.79975401875000 
 C -3.16560705937500 4.96180456562500 5.58692201875000 
 C -4.41018005937500 0.866009565624999 5.19858601875000 
 C -4.43009605937500 4.61748556562500 4.94093801875000 
 N -2.11737405937500 1.20306256562500 4.92373501875000 
 N -2.19833505937500 5.17986156562500 4.69994301875000 
 N -4.34022105937500 0.591626565624999 3.90149201875000 
 N -4.37137905937500 4.46421456562500 3.62047201875000 
 N -4.79790505937500 1.48680856562500 7.62493101875000 
 N -4.87005605937500 5.02371056562500 7.53307001875000 
 S -5.70758105937500 1.14094156562500 6.28997801875000 
 S -5.72524905937500 4.52938156562500 6.11809801875000 
 S -2.75385605937500 0.779214565624998 3.48631501875000 
 S -2.80631405937500 4.97903956562500 3.21448701875000 
 S -3.15636505937500 1.70364456562500 7.36002801875000 
 S -3.23410205937500 5.47901156562500 7.24925601875000 
