16

 C -3.24144880625000 0.878077281250001 5.45805032187500 
 C -3.21192580625000 4.96287328125000 5.70797932187500 
 C -4.48443780625000 0.653771281250001 4.74451832187500 
 C -4.46391180625000 4.57680128125000 5.08870532187500 
 N -2.21759580625000 1.23913028125000 4.71181832187500 
 N -2.21307380625000 5.26359928125000 4.86203332187500 
 N -4.31936680625000 0.745264281250001 3.41292032187500 
 N -4.36507680625000 4.37407528125000 3.75279732187500 
 N -5.10266580625000 0.642528281250001 7.31030832187500 
 N -4.94401280625000 4.80509428125000 7.61460132187500 
 S -5.83191380625000 0.311232281250001 5.85712432187500 
 S -5.70386580625000 4.20211128125000 6.26447732187500 
 S -2.73533880625000 1.27743628125000 3.14920832187500 
 S -2.78776280625000 4.77920428125000 3.37709432187500 
 S -3.47257180625000 0.803023281250001 7.12142132187500 
 S -3.35172880625000 5.09041528125000 7.43804432187500 
