16

 C -3.11689998437500 0.902544456250001 5.60911374062500 
 C -3.27041598437500 4.83689945625000 5.26638974062500 
 C -4.34247998437500 0.752028456250001 4.93607874062500 
 C -4.47351998437500 4.29635145625000 4.62326174062500 
 N -2.07925798437500 1.20003445625000 4.75114674062500 
 N -2.29244698437500 5.13151045625000 4.39425574062500 
 N -4.30950898437500 0.726426456250001 3.58260974062500 
 N -4.32362698437500 4.08368545625000 3.32521974062500 
 N -4.94490498437500 0.750237456250002 7.47346774062500 
 N -5.09576298437500 4.71754745625000 7.14324474062500 
 S -5.68272798437500 0.505797456250002 6.00966174062500 
 S -5.84561498437500 4.05400445625000 5.73148074062500 
 S -2.72440398437500 0.996592456250001 3.25614674062500 
 S -2.81138698437500 4.66338745625000 2.92760374062500 
 S -3.26525598437500 0.871754456250001 7.34544174062500 
 S -3.55905298437500 5.31759945625000 6.88343274062500 
