16

 C -3.24102657500000 0.906833899999998 5.45216953125000 
 C -3.33270257500000 5.02461090000000 5.54620053125000 
 C -4.52389757500000 0.687811899999997 4.77836253125000 
 C -4.51112557500000 4.55988490000000 4.86886553125000 
 N -2.21474457500000 1.08903090000000 4.63038553125000 
 N -2.25105957500000 5.31056790000000 4.75222253125000 
 N -4.45118957500000 0.707272899999998 3.44559353125000 
 N -4.34465057500000 4.40192790000000 3.55417653125000 
 N -5.03598757500000 0.637455899999997 7.27779353125000 
 N -4.98176257500000 4.52808490000000 7.42605253125000 
 S -5.89613057500000 0.452485899999997 5.88093053125000 
 S -5.87741357500000 4.38355090000000 6.00655153125000 
 S -2.84356257500000 0.979928899999997 3.07495953125000 
 S -2.79254057500000 4.92778990000000 3.24985553125000 
 S -3.40957657500000 0.802233899999997 7.15468953125000 
 S -3.37532557500000 4.93455590000000 7.29391653125000 
