16

 C -3.19131416562500 0.796959200000001 5.64803880000000 
 C -2.99194016562500 5.10589920000000 5.41460580000000 
 C -4.37188416562500 0.529231200000001 4.88905380000000 
 C -4.21864216562500 4.67037120000000 4.73286680000000 
 N -2.14044516562500 1.04977320000000 4.91465180000000 
 N -1.95424416562500 5.24888220000000 4.61143680000000 
 N -4.19233316562500 0.682058200000001 3.57427580000000 
 N -4.03814016562500 4.37629020000000 3.44770080000000 
 N -5.10650716562500 0.660404200000001 7.30128480000000 
 N -4.80692116562500 4.78599820000000 7.18256880000000 
 S -5.80811816562500 0.345558200000001 5.82196180000000 
 S -5.48183116562500 4.20571920000000 5.80162780000000 
 S -2.58841916562500 0.911250200000001 3.34690680000000 
 S -2.45150216562500 4.68182020000000 3.13250880000000 
 S -3.45282316562500 0.982242200000001 7.42382680000000 
 S -3.26113416562500 5.20715120000000 7.17654880000000 
