16

 C -3.01612227500000 1.30495303437500 5.57854440000000 
 C -3.07345627500000 5.08726203437500 5.55893840000000 
 C -4.16053727500000 0.749161034374997 4.98485840000000 
 C -4.20882427500000 4.40240403437500 4.98191740000000 
 N -1.92430327500000 1.35465203437500 4.83386340000000 
 N -2.06315227500000 5.35690803437500 4.72588140000000 
 N -4.02377127500000 0.366182034374997 3.73237240000000 
 N -4.01464027500000 3.98956703437500 3.71423640000000 
 N -4.88522927500000 1.28460803437500 7.42242940000000 
 N -4.84155227500000 4.84247403437500 7.47366040000000 
 S -5.56968327500000 0.674361034374997 6.02555940000000 
 S -5.59583227500000 4.39793303437500 6.05383940000000 
 S -2.46135727500000 0.717580034374997 3.32591240000000 
 S -2.47152327500000 4.56106303437500 3.28939440000000 
 S -3.24650927500000 1.60988803437500 7.30436640000000 
 S -3.22550627500000 5.36099703437500 7.32342140000000 
