16

 C -2.82771950625000 1.71493197187500 5.30587855000000 
 C -3.31579550625000 5.09871397187500 5.60766955000000 
 C -4.04737150625000 1.10950697187500 4.78689855000000 
 C -4.48288350625000 4.61875097187500 4.88974355000000 
 N -1.93909950625000 1.98772997187500 4.34933955000000 
 N -2.29830450625000 5.31881797187500 4.78529155000000 
 N -3.89669650625000 0.826342971874999 3.49076055000000 
 N -4.36025150625000 4.54897697187500 3.54536755000000 
 N -4.25567150625000 1.07969397187500 7.35582655000000 
 N -5.04104750625000 4.47998997187500 7.46561755000000 
 S -5.12472150625000 0.568870971874999 6.03794355000000 
 S -5.75368350625000 3.99320397187500 6.01966755000000 
 S -2.41079250625000 1.37385797187500 2.88105355000000 
 S -2.81821650625000 5.05244497187500 3.21919255000000 
 S -2.79326150625000 1.72847397187500 7.02236655000000 
 S -3.47436250625000 4.93129797187500 7.35429755000000 
