16

 C -3.12351014687500 1.47689764062500 5.60724552812500 
 C -3.33694714687500 5.04626764062500 5.26540952812500 
 C -4.27431914687500 0.968944640624999 4.88217752812500 
 C -4.44519714687500 4.36939964062500 4.65939052812500 
 N -2.04287714687500 1.63918564062500 4.86784552812500 
 N -2.25508314687500 5.25414964062500 4.53441752812500 
 N -4.00694514687500 0.810663640624999 3.60912152812500 
 N -4.14238214687500 3.95726364062500 3.44798652812500 
 N -5.05474714687500 1.22556364062500 7.28528052812500 
 N -5.29896314687500 5.35582864062500 6.89217952812500 
 S -5.70945814687500 0.998602640624999 5.79796052812500 
 S -5.93837914687500 4.47199464062500 5.56566352812500 
 S -2.35386214687500 1.18476064062500 3.27337452812500 
 S -2.55904414687500 4.44303164062500 3.11907552812500 
 S -3.51445214687500 1.66089364062500 7.27830852812500 
 S -3.61094514687500 5.57343364062500 6.86571952812500 
