16

 C -3.39397275000000 1.36207063125000 5.53532308750000 
 C -2.86708875000000 5.25984863125000 5.44452708750000 
 C -4.46809175000000 0.594565631250000 4.94394808750000 
 C -4.13161675000000 4.91296863125000 4.82890808750000 
 N -2.41629475000000 1.75107763125000 4.70052908750000 
 N -1.87443475000000 5.31487763125000 4.56166308750000 
 N -4.24784275000000 0.373568631250000 3.60344408750000 
 N -4.14304675000000 4.74547163125000 3.48812408750000 
 N -5.15743875000000 1.20447963125000 7.44198308750000 
 N -4.78786475000000 5.05001163125000 7.30333808750000 
 S -5.78075175000000 0.274598631250000 6.12945908750000 
 S -5.47614175000000 4.76539963125000 5.86853108750000 
 S -2.74629375000000 1.01414163125000 3.28802108750000 
 S -2.54635075000000 4.96765163125000 3.10628208750000 
 S -3.61290475000000 1.86459263125000 7.17026808750000 
 S -3.15541175000000 5.41053463125000 7.24986008750000 
