16

 C -3.08806416562500 1.28393077500000 5.33218277187500 
 C -2.84408816562500 5.03246977500000 5.69346077187500 
 C -4.24620216562500 0.761050774999996 4.61171277187500 
 C -4.06819516562500 4.44698677500000 5.16044777187500 
 N -2.06869416562500 1.59876677500000 4.54013877187500 
 N -1.88083216562500 5.27341977500000 4.82050977187500 
 N -4.20565016562500 0.833859774999996 3.27865277187500 
 N -4.02109916562500 4.22038277500000 3.87041577187500 
 N -4.91805316562500 0.699031774999995 7.12853577187500 
 N -4.52673116562500 4.65241877500000 7.61458577187500 
 S -5.57842916562500 0.305524774999996 5.65059977187500 
 S -5.40520416562500 4.47540977500000 6.26820577187500 
 S -2.64724816562500 1.33380177500000 2.91413077187500 
 S -2.55393216562500 4.84012777500000 3.30721077187500 
 S -3.33566716562500 1.32798377500000 7.07794477187500 
 S -2.97818316562500 5.21569477500000 7.40494977187500 
