16

 C -3.70212412500000 1.17897275625000 5.61944702500000 
 C -2.99472912500000 5.01592975625000 5.36392802500000 
 C -4.82834612500000 0.558311756250003 4.99206402500000 
 C -4.24038312500000 4.47928475625000 4.84091702500000 
 N -2.67818812500000 1.50844975625000 4.82677602500000 
 N -2.03337912500000 5.11761975625000 4.45304402500000 
 N -4.65560412500000 0.383133756250002 3.69241602500000 
 N -4.17154412500000 4.06329375625000 3.57552902500000 
 N -5.46050712500000 0.576045756250003 7.38664702500000 
 N -4.73036812500000 4.90663075625000 7.30658802500000 
 S -6.18928012500000 0.164844756250003 5.91141702500000 
 S -5.48824212500000 4.30926075625000 5.94172602500000 
 S -3.17529412500000 1.04219575625000 3.32262902500000 
 S -2.64339912500000 4.54419075625000 3.02461802500000 
 S -3.87431712500000 1.17040275625000 7.34801402500000 
 S -3.14174712500000 5.43381275625000 7.10906102500000 
