16

 C -2.85220656875000 1.71383535312500 5.28703060937500 
 C -3.35109756875000 5.12221635312500 5.59419160937500 
 C -4.06605056875000 1.09309435312500 4.78494460937500 
 C -4.48906756875000 4.55185535312500 4.89719260937500 
 N -1.91353256875000 1.96887135312500 4.37050960937500 
 N -2.28261456875000 5.28029235312500 4.79749960937500 
 N -3.94568656875000 0.838181353125001 3.46485060937500 
 N -4.36743856875000 4.54014335312500 3.56489260937500 
 N -4.27584556875000 1.07444535312500 7.34682960937500 
 N -5.03581456875000 4.49709835312500 7.44740760937500 
 S -5.17359456875000 0.575477353125001 6.04171460937500 
 S -5.72200256875000 4.00987535312500 6.00184560937500 
 S -2.44412656875000 1.35794435312500 2.91252160937500 
 S -2.83695156875000 5.05994635312500 3.21976060937500 
 S -2.81386556875000 1.71135435312500 6.98823860937500 
 S -3.46097056875000 4.91949135312500 7.36226260937500 
