16

 C -3.00072439375000 1.74923293125000 5.58445908750000 
 C -3.09889539375000 5.38890393125000 5.55489108750000 
 C -4.13620039375000 1.04376193125000 4.98265708750000 
 C -4.31028139375000 4.85304493125000 4.99617708750000 
 N -1.93953839375000 1.81805993125000 4.78177608750000 
 N -2.04419439375000 5.47251493125000 4.73934208750000 
 N -3.89200039375000 0.652693931249999 3.70486708750000 
 N -4.13295639375000 4.53404193125000 3.71442508750000 
 N -4.74887239375000 1.45026693125000 7.50518408750000 
 N -4.86220239375000 5.34262193125000 7.48393308750000 
 S -5.44812739375000 0.774896931250000 6.18206408750000 
 S -5.68625639375000 4.94361093125000 6.05680408750000 
 S -2.34711839375000 1.23571893125000 3.31823808750000 
 S -2.62370939375000 5.00221893125000 3.28338208750000 
 S -3.24227239375000 2.12437393125000 7.29766408750000 
 S -3.22566639375000 5.71648493125000 7.24834908750000 
