16

 C -3.40146140937500 1.81730439687500 5.57714202500000 
 C -2.93433440937500 5.14859139687500 5.51075902500000 
 C -4.59559040937500 1.31084339687500 4.93694102500000 
 C -4.21822940937500 4.88906339687500 4.93093702500000 
 N -2.35628640937500 1.97861339687500 4.79506802500000 
 N -1.94401740937500 5.22058139687500 4.60016102500000 
 N -4.37896940937500 0.955358396874997 3.67144202500000 
 N -4.21039440937500 4.71650239687500 3.59221502500000 
 N -5.09976140937500 1.27730739687500 7.48234302500000 
 N -4.59753640937500 4.93996939687500 7.42085402500000 
 S -5.95143640937500 1.15956739687500 6.04622102500000 
 S -5.47323840937500 4.80181839687500 6.04139602500000 
 S -2.82496140937500 1.41880139687500 3.33708002500000 
 S -2.61620140937500 5.02698439687500 3.14118002500000 
 S -3.51143640937500 1.86478539687500 7.35420902500000 
 S -3.04848740937500 5.27462839687500 7.26067802500000 
