16

 C -3.07088681562500 1.61782042812500 5.68704362187500 
 C -3.04194781562500 5.28752442812500 5.75782562187500 
 C -4.16423481562500 0.906186428124996 5.07501362187500 
 C -4.29567781562500 4.93559442812500 5.13114462187500 
 N -1.98967581562500 1.75269442812500 4.89494762187500 
 N -2.02721281562500 5.35680242812500 4.91192162187500 
 N -3.88238681562500 0.578043428124996 3.81693162187500 
 N -4.23512681562500 4.75062342812500 3.82816762187500 
 N -4.87380681562500 1.42600442812500 7.56986662187500 
 N -4.88937981562500 5.22481042812500 7.54917962187500 
 S -5.54555681562500 0.781960428124997 6.18286262187500 
 S -5.68875481562500 4.83752642812500 6.17927662187500 
 S -2.35027281562500 1.21869442812500 3.37607662187500 
 S -2.64894481562500 5.03468842812500 3.41444962187500 
 S -3.32447181562500 2.01703542812500 7.34873462187500 
 S -3.31437281562500 5.58381442812500 7.43099062187500 
