16

 C -3.37146320937500 1.46519759375000 5.72835149687500 
 C -3.29908520937500 5.17449659375000 5.40853949687500 
 C -4.42186520937500 0.901517593750000 4.97007049687500 
 C -4.52283720937500 4.73779359375000 4.78388449687500 
 N -2.19922120937500 1.55661759375000 5.05101049687500 
 N -2.33164820937500 5.34243359375000 4.52855549687500 
 N -4.14458720937500 0.665967593750000 3.67973049687500 
 N -4.47388420937500 4.59029359375000 3.47349749687500 
 N -5.35010820937500 1.03976459375000 7.39680649687500 
 N -5.06349320937500 4.91494559375000 7.31889649687500 
 S -5.92503220937500 0.577676593750000 5.90428549687500 
 S -5.77335720937500 4.41824259375000 5.86924649687500 
 S -2.60377320937500 1.17942159375000 3.46968749687500 
 S -2.96437920937500 5.02265359375000 3.02260749687500 
 S -3.79599220937500 1.56603259375000 7.50098849687500 
 S -3.42097920937500 5.30097159375000 7.18282549687500 
