16

 C -2.80859499062500 1.71375236875000 5.28609345312500 
 C -3.29843599062500 5.04282736875000 5.59689745312500 
 C -3.97454699062500 1.10091036875000 4.75914545312500 
 C -4.50327099062500 4.66299136875000 4.88992545312500 
 N -1.93819699062500 2.00770336875000 4.35625045312500 
 N -2.29972399062500 5.37453036875000 4.76895745312500 
 N -3.87940499062500 0.802442368750001 3.48916945312500 
 N -4.36236199062500 4.55634836875000 3.56507045312500 
 N -4.24497399062500 1.07530136875000 7.35505245312500 
 N -5.05907599062500 4.45256036875000 7.47207745312500 
 S -5.08387599062500 0.566226368750001 6.02964145312500 
 S -5.77924999062500 3.98524336875000 6.02832445312500 
 S -2.40349899062500 1.39360136875000 2.87542145312500 
 S -2.80166799062500 5.04657936875000 3.22692845312500 
 S -2.77324899062500 1.76043636875000 7.06646945312500 
 S -3.48104399062500 4.95340736875000 7.34032445312500 
