16

 C -3.44101056250000 1.29523707812500 5.44087094375000 
 C -3.21086856250000 5.09875807812500 5.85192994375000 
 C -4.65615056250000 0.895469078125000 4.75053194375000 
 C -4.48032856250000 4.79206307812500 5.17528994375000 
 N -2.42456556250000 1.54674007812500 4.63527894375000 
 N -2.25884456250000 5.44465207812500 5.01895194375000 
 N -4.49385156250000 0.783088078125000 3.41811594375000 
 N -4.40390856250000 4.75942007812500 3.85879894375000 
 N -5.22086056250000 0.997394078125000 7.25717494375000 
 N -4.95711356250000 4.70949807812500 7.67655094375000 
 S -5.83516456250000 0.381575078125000 5.78712894375000 
 S -5.72493756250000 4.34645807812500 6.25112494375000 
 S -2.87942856250000 1.25287107812500 3.13505094375000 
 S -2.88473356250000 5.21046107812500 3.48069794375000 
 S -3.58910456250000 1.25814307812500 7.19484994375000 
 S -3.36776556250000 5.28097207812500 7.60956894375000 
