16

 C -2.98934460625000 1.36355975000000 5.71458550000000 
 C -3.13522260625000 5.08926375000000 5.50522150000000 
 C -4.22854260625000 0.972139749999999 5.16413750000000 
 C -4.41512660625000 4.77013675000000 4.96666450000000 
 N -1.93257960625000 1.12486275000000 4.94957050000000 
 N -2.14718560625000 5.13906075000000 4.63744250000000 
 N -4.20302660625000 0.542204750000000 3.88897550000000 
 N -4.39460160625000 4.50105475000000 3.66695650000000 
 N -4.75055260625000 1.49112575000000 7.72548250000000 
 N -4.84160460625000 4.97328175000000 7.46780350000000 
 S -5.58589860625000 0.973721749999999 6.32986950000000 
 S -5.68133660625000 4.51730775000000 6.16082450000000 
 S -2.59359760625000 0.599383749999999 3.44149550000000 
 S -2.80803060625000 4.65177175000000 3.19556350000000 
 S -3.10127860625000 1.85661975000000 7.44830450000000 
 S -3.24519560625000 5.31796275000000 7.21516250000000 
