16

 C -3.19964297812500 1.60530880312500 5.65219696250000 
 C -2.96078197812500 5.44815180312500 5.52591796250000 
 C -4.38951097812500 1.26832480312500 4.83548096250000 
 C -4.25121797812500 4.97778580312500 4.99845496250000 
 N -2.14292097812500 1.88428380312500 4.91275896250000 
 N -1.96091397812500 5.38500580312500 4.65010196250000 
 N -4.19033697812500 1.27294680312500 3.52394896250000 
 N -4.23300397812500 4.77448880312500 3.69780796250000 
 N -5.03699797812500 0.751492803125001 7.24368896250000 
 N -4.77388097812500 5.15527680312500 7.42808496250000 
 S -5.74968297812500 0.767931803125001 5.71237296250000 
 S -5.58867997812500 4.86877880312500 6.05092896250000 
 S -2.63644797812500 1.72682580312500 3.28170696250000 
 S -2.67677097812500 4.99811380312500 3.17590296250000 
 S -3.42676997812500 1.26730380312500 7.29643396250000 
 S -3.20641497812500 5.45167180312500 7.26890396250000 
