16

 C -3.14214184062500 0.899548296875002 5.59739074375000 
 C -3.14215384062500 4.91469929687500 5.34626374375000 
 C -4.39376784062500 0.827596296875003 4.87034074375000 
 C -4.34578984062500 4.55532429687500 4.67107374375000 
 N -2.00060484062500 0.918527296875003 4.84191174375000 
 N -2.06941584062500 5.05345729687500 4.53580674375000 
 N -4.18693484062500 0.756133296875003 3.56065974375000 
 N -4.18670084062500 4.32591029687500 3.36062074375000 
 N -5.05726384062500 0.593718296875003 7.41118274375000 
 N -4.92128484062500 4.69313729687500 7.19419274375000 
 S -5.77455584062500 0.391258296875002 5.93891674375000 
 S -5.63313684062500 4.13878929687500 5.76489874375000 
 S -2.56598184062500 0.940208296875003 3.31321474375000 
 S -2.58982084062500 4.68319729687500 3.04440174375000 
 S -3.42064584062500 0.914283296875002 7.28690274375000 
 S -3.41657484062500 5.37142129687500 7.05070974375000 
