16

 C -3.43018643125000 1.27067979062500 5.94955623125000 
 C -3.13145443125000 5.00407979062500 5.23685923125000 
 C -4.60929443125000 0.875150790625001 5.17541023125000 
 C -4.35343743125000 4.80376379062500 4.50244323125000 
 N -2.30947843125000 1.47114979062500 5.20927123125000 
 N -2.07171243125000 5.12138779062500 4.41790023125000 
 N -4.36313743125000 0.814707790625001 3.85090623125000 
 N -4.19063343125000 4.50318179062500 3.20086923125000 
 N -5.35548943125000 1.04328579062500 7.61424923125000 
 N -5.01225443125000 4.92983879062500 6.99513323125000 
 S -5.98526443125000 0.505500790625001 6.16556823125000 
 S -5.74701843125000 4.51625379062500 5.55977923125000 
 S -2.73406543125000 1.19406679062500 3.63544023125000 
 S -2.57381543125000 4.72136779062500 2.84839623125000 
 S -3.68563343125000 1.25382279062500 7.68409523125000 
 S -3.33409043125000 5.22345279062500 6.93341723125000 
