16

 C -3.10341847187500 1.52160276562500 5.58777097812500 
 C -2.96313147187500 5.34282576562500 5.44567297812500 
 C -4.35008947187500 1.00120576562500 5.07296097812500 
 C -4.18274147187500 4.89159876562500 4.82872997812500 
 N -2.17926347187500 1.62962776562500 4.68228597812500 
 N -1.97487847187500 5.57896676562500 4.55085697812500 
 N -4.30084447187500 0.627901765624999 3.82048697812500 
 N -4.11815047187500 4.74572376562500 3.50372797812500 
 N -4.59117847187500 1.16758376562500 7.64277297812500 
 N -4.54198047187500 4.88818176562500 7.30264897812500 
 S -5.56734947187500 0.805337765624998 6.29168197812500 
 S -5.45557047187500 4.64991776562500 5.97647197812500 
 S -2.81816447187500 1.13553476562500 3.21106397812500 
 S -2.62116647187500 5.23492376562500 2.99355197812500 
 S -3.03701347187500 1.60462476562500 7.33409297812500 
 S -2.98003747187500 5.41236576562500 7.19508897812500 
