16

 C -2.74195510937500 1.21710380937500 5.41991087500000 
 C -2.99223610937500 5.17113180937500 5.66354987500000 
 C -4.04814110937500 0.884651809375003 4.84514287500000 
 C -4.13391710937500 4.55290680937500 5.03233487500000 
 N -1.77341310937500 1.42067980937500 4.56223587500000 
 N -1.95719910937500 5.39504680937500 4.86613587500000 
 N -4.06672210937500 1.00272280937500 3.53142487500000 
 N -4.07112310937500 4.49626680937500 3.69498687500000 
 N -4.58726910937500 1.28879480937500 7.37512187500000 
 N -4.85444310937500 4.91135880937500 7.45307887500000 
 S -5.40864810937500 0.966585809375003 5.95928687500000 
 S -5.47351610937500 4.25653280937500 6.02822887500000 
 S -2.50977910937500 1.23956880937500 3.01847287500000 
 S -2.48581410937500 4.97524780937500 3.34380687500000 
 S -2.90289010937500 1.58302480937500 7.15315187500000 
 S -3.27703510937500 5.40507980937500 7.40758987500000 
