16

 C -3.13007134375000 1.33637147187500 5.49196342812500 
 C -3.07953934375000 5.16457947187500 5.63624542812500 
 C -4.24599434375000 0.679342471875003 4.80453642812500 
 C -4.15591934375000 4.55238247187500 4.86236242812500 
 N -2.13750934375000 1.71649447187500 4.73715742812500 
 N -1.98164834375000 5.32783847187500 4.86582142812500 
 N -4.14545134375000 0.640190471875004 3.49913942812500 
 N -4.04782534375000 4.38287847187500 3.56234442812500 
 N -4.89392934375000 0.905670471875004 7.30018942812500 
 N -5.25360834375000 5.10682847187500 7.14134142812500 
 S -5.62136834375000 0.358172471875005 5.90685442812500 
 S -5.61959034375000 4.25056947187500 5.77884842812500 
 S -2.57034734375000 1.34760947187500 3.17293442812500 
 S -2.44775834375000 4.87247447187500 3.30390542812500 
 S -3.34158434375000 1.56035647187500 7.10791542812500 
 S -3.56467434375000 5.60305547187500 7.24947042812500 
