16

 C -3.17831548125000 0.857532824999999 5.39992820625000 
 C -3.18079348125000 4.54669682500000 5.52284320625000 
 C -4.42246248125000 0.506061825000000 4.77899420625000 
 C -4.51941048125000 4.66135482500000 4.92393720625000 
 N -2.23183548125000 1.30273582500000 4.57960720625000 
 N -2.16853848125000 4.40139482500000 4.69640420625000 
 N -4.47554548125000 0.654419825000000 3.45409520625000 
 N -4.48015048125000 4.74437082500000 3.60316220625000 
 N -4.84328748125000 0.442299824999999 7.33585120625000 
 N -4.83561848125000 4.68661482500000 7.49274220625000 
 S -5.68970948125000 0.226575824999999 5.96147620625000 
 S -5.80588048125000 4.65238182500000 6.14697720625000 
 S -2.90851648125000 1.17950282500000 3.05242120625000 
 S -2.83993348125000 4.59424682500000 3.23051320625000 
 S -3.26656448125000 0.915368824999999 7.17486520625000 
 S -3.18887648125000 4.81078482500000 7.24254920625000 
