16

 C -3.15455120312500 1.34636280937500 5.51392051875000 
 C -3.10146120312500 4.92880780937500 5.69670251875000 
 C -4.40645020312500 0.914654809375003 4.98542551875000 
 C -4.34124320312500 4.44577780937500 5.11312351875000 
 N -2.21327620312500 1.53587480937500 4.58817951875000 
 N -2.12316520312500 5.24408280937500 4.77621051875000 
 N -4.44073120312500 0.679621809375003 3.67540551875000 
 N -4.18768520312500 4.14697180937500 3.82345751875000 
 N -4.90983920312500 1.36343080937500 7.46298351875000 
 N -4.96461220312500 4.73929780937500 7.61605951875000 
 S -5.73166720312500 0.921057809375004 6.14522051875000 
 S -5.72007020312500 4.21464980937500 6.17952951875000 
 S -2.88122220312500 0.992173809375004 3.18806751875000 
 S -2.71797420312500 4.69435480937500 3.29633451875000 
 S -3.34382020312500 1.73169580937500 7.22120451875000 
 S -3.34995520312500 5.29447480937500 7.42878451875000 
