16

 C -3.11267782812500 1.20282618125000 5.74220754375000 
 C -2.83648782812500 4.66109318125000 5.50563554375000 
 C -4.46362882812500 0.963113181250002 5.30351154375000 
 C -4.09162182812500 4.53952218125000 4.83371454375000 
 N -2.12500082812500 0.919632181250003 4.85686754375000 
 N -1.85496782812500 4.79492318125000 4.59072854375000 
 N -4.53573982812500 0.574734181250004 4.03162854375000 
 N -4.09412582812500 4.49893018125000 3.52660754375000 
 N -4.55638182812500 1.73735718125000 7.76492654375000 
 N -4.65685782812500 4.59019218125000 7.30432554375000 
 S -5.64760382812500 1.33751118125000 6.53564254375000 
 S -5.44545082812500 4.55490018125000 5.90269154375000 
 S -2.94733482812500 0.626081181250004 3.45488554375000 
 S -2.50153382812500 4.77765218125000 3.03487954375000 
 S -2.95028382812500 1.76735018125000 7.30131854375000 
 S -3.03486082812500 4.87067418125000 7.21961254375000 
