16

 C -3.17006755625000 1.54593663125000 5.61077785937500 
 C -3.05348255625000 5.25510063125000 5.51556985937500 
 C -4.39467855625000 1.22142763125000 4.87287985937500 
 C -4.30346955625000 4.97063963125000 4.86215485937500 
 N -2.14059155625000 1.94216663125000 4.86706385937500 
 N -2.04614755625000 5.39335263125000 4.66900385937500 
 N -4.19563655625000 1.36386063125000 3.56062385937500 
 N -4.23189755625000 4.69938363125000 3.54810685937500 
 N -5.05655555625000 0.926740631249998 7.30652385937500 
 N -4.81671555625000 5.28790563125000 7.42995985937500 
 S -5.82655355625000 0.782422631249998 5.79223885937500 
 S -5.55315555625000 4.74910163125000 6.01078085937500 
 S -2.60278355625000 1.73621663125000 3.32965285937500 
 S -2.65153055625000 5.02195163125000 3.17011785937500 
 S -3.38514155625000 1.17190263125000 7.28796185937500 
 S -3.13241055625000 5.42868063125000 7.23925385937500 
