16

 C -3.10895353750000 1.60208930000000 5.62904206875000 
 C -3.25112153750000 4.92658530000000 5.43998406875000 
 C -4.42714453750000 1.26876530000000 5.04899606875000 
 C -4.49053153750000 4.73239730000000 4.73232806875000 
 N -2.08592353750000 1.55752630000000 4.73666806875000 
 N -2.17483153750000 4.85815430000000 4.66842806875000 
 N -4.43756153750000 1.15409830000000 3.70526406875000 
 N -4.38085153750000 4.66361830000000 3.40044306875000 
 N -4.83820453750000 1.61851030000000 7.54244606875000 
 N -5.04465853750000 4.90473730000000 7.33487706875000 
 S -5.69130253750000 1.19183630000000 6.20542506875000 
 S -5.81995153750000 4.57671330000000 5.86444106875000 
 S -2.87585553750000 1.36795430000000 3.29645706875000 
 S -2.71613053750000 4.82532730000000 3.11919806875000 
 S -3.18100053750000 1.83416130000000 7.37779806875000 
 S -3.39457853750000 5.12765430000000 7.15810106875000 
