16

 C -3.08802583750000 1.23789866250000 5.46213674375000 
 C -2.88886983750000 5.27289566250000 5.47888974375000 
 C -4.25567883750000 0.886406662500003 4.68807574375000 
 C -4.14901083750000 4.93516466250000 4.86450174375000 
 N -1.93741883750000 1.42035466250000 4.84763374375000 
 N -1.88319783750000 5.21947966250000 4.63154874375000 
 N -3.91541783750000 0.824498662500004 3.37631574375000 
 N -4.13788883750000 4.66789366250000 3.53518174375000 
 N -4.92944783750000 1.29507666250000 7.16936474375000 
 N -4.80060583750000 5.18338266250000 7.38696474375000 
 S -5.60896783750000 0.691344662500003 5.83792774375000 
 S -5.52048183750000 4.92207166250000 5.87471874375000 
 S -2.28542783750000 1.03836466250000 3.29430774375000 
 S -2.57763383750000 4.85928266250000 3.12636674375000 
 S -3.28600283750000 1.43216566250000 7.18316774375000 
 S -3.08130983750000 5.47741466250000 7.28872974375000 
