16

 C -3.10181760312500 1.47726445625000 5.45685343750000 
 C -3.36230660312500 5.28630245625000 5.21763843750000 
 C -4.26889760312500 0.732552456249999 4.93859043750000 
 C -4.33343160312500 4.39913845625000 4.64920643750000 
 N -2.17614860312500 1.68938045625000 4.51375043750000 
 N -2.42942560312500 5.66538845625000 4.35347243750000 
 N -4.16840660312500 0.473500456249999 3.60483343750000 
 N -4.11085560312500 4.06400245625000 3.38652543750000 
 N -4.78557460312500 1.29022845625000 7.39324443750000 
 N -5.22058360312500 4.92579145625000 7.01480943750000 
 S -5.53395360312500 0.615275456249999 6.12383843750000 
 S -5.70733460312500 4.11281145625000 5.64816843750000 
 S -2.73153860312500 1.02856145625000 3.06989843750000 
 S -2.75888760312500 4.78840745625000 2.97962443750000 
 S -3.23414760312500 1.75959445625000 7.15050443750000 
 S -3.68649660312500 5.65887445625000 6.89982943750000 
