16

 C -3.31935680000000 1.58520546250000 5.56213214687500 
 C -3.35501980000000 5.34782846250000 5.70452114687500 
 C -4.57356580000000 1.19732346250000 4.98244114687500 
 C -4.44198480000000 4.71260646250000 5.04907514687500 
 N -2.31540680000000 1.71894946250000 4.67071314687500 
 N -2.32987780000000 5.52890946250000 4.85454414687500 
 N -4.54754780000000 1.09707346250000 3.65484314687500 
 N -4.34996080000000 4.61610146250000 3.69143614687500 
 N -4.84171480000000 1.07495446250000 7.50024714687500 
 N -5.03629280000000 4.86449546250000 7.60485814687500 
 S -5.78890180000000 0.933009462499997 6.18636914687500 
 S -5.73173980000000 4.29503846250000 6.16383214687500 
 S -3.05003980000000 1.48824746250000 3.18471414687500 
 S -2.83709980000000 5.19497446250000 3.33660114687500 
 S -3.26907780000000 1.60791446250000 7.23303714687500 
 S -3.42049680000000 5.40074946250000 7.44709214687500 
