16

 C -3.10680770625000 1.44095737187500 5.51026882500000 
 C -2.97689670625000 4.86797137187500 5.30982482500000 
 C -4.30730270625000 0.970223371875002 4.86529682500000 
 C -4.30136670625000 4.70021637187500 4.72400782500000 
 N -2.04429270625000 1.60366637187500 4.71312282500000 
 N -1.95525970625000 4.73447737187500 4.46459282500000 
 N -4.15176070625000 0.788425371875001 3.51145482500000 
 N -4.21662070625000 4.52325237187500 3.40757782500000 
 N -4.85949470625000 1.33790737187500 7.41401182500000 
 N -4.68306870625000 5.23100337187500 7.21328082500000 
 S -5.58565970625000 0.893651371875001 5.99303782500000 
 S -5.57889170625000 4.92474837187500 5.85690982500000 
 S -2.56797470625000 1.07564937187500 3.15556382500000 
 S -2.59590970625000 4.50422437187500 2.96074982500000 
 S -3.26937070625000 1.86590637187500 7.24393982500000 
 S -3.03731070625000 5.32187037187500 7.03584582500000 
