16

 C -3.16883126562500 1.14487865312500 5.49295755937500 
 C -2.87709926562500 5.23045965312500 5.52209555937500 
 C -4.50316326562500 0.730849653125003 5.00900855937500 
 C -4.06688726562500 4.89234265312500 4.73932155937500 
 N -2.25259526562500 1.35602665312500 4.53958355937500 
 N -1.81006326562500 5.20632065312500 4.73080555937500 
 N -4.58804226562500 0.557594653125003 3.69426555937500 
 N -3.94193526562500 4.86973565312500 3.40748255937500 
 N -4.84572626562500 1.17897965312500 7.57795055937500 
 N -4.79558926562500 4.93452265312500 7.17229755937500 
 S -5.73893526562500 0.699696653125002 6.25294855937500 
 S -5.51868626562500 4.62050365312500 5.67330255937500 
 S -3.09526726562500 0.908086653125003 3.12926455937500 
 S -2.31754726562500 5.10155665312500 3.11707455937500 
 S -3.21845726562500 1.28754765312500 7.23898555937500 
 S -3.11339826562500 5.08205065312500 7.22341755937500 
