16

 C -2.88934241562500 2.09741484062500 5.43462392500000 
 C -3.07763541562500 5.16852084062500 5.40210292500000 
 C -4.10707341562500 1.60732284062500 4.81171892500000 
 C -4.26006941562500 4.82350484062500 4.70173192500000 
 N -1.90048941562500 2.32070784062500 4.57722292500000 
 N -2.03734341562500 5.39243184062500 4.60625292500000 
 N -4.00600341562500 1.26652284062500 3.51036092500000 
 N -4.09744441562500 4.79136084062500 3.36545292500000 
 N -4.62328241562500 1.84193984062500 7.36823192500000 
 N -4.94520141562500 5.05534484062500 7.12790292500000 
 S -5.42182741562500 1.43305384062500 5.95170192500000 
 S -5.66736341562500 4.55425584062500 5.70871892500000 
 S -2.42404041562500 1.82376984062500 3.12526392500000 
 S -2.51354241562500 5.24532584062500 3.03792992500000 
 S -3.03688541562500 2.25162284062500 7.18425192500000 
 S -3.29724741562500 5.32469484062500 7.11516792500000 
