16

 C -3.10149703750000 1.71791620625000 5.52817125625000 
 C -3.12155703750000 5.03036920625000 5.50502725625000 
 C -4.45145303750000 1.53684120625000 4.98084125625000 
 C -4.36785103750000 4.66271620625000 4.87984225625000 
 N -2.11105903750000 1.73682420625000 4.61679025625000 
 N -2.10577303750000 5.37360820625000 4.69351325625000 
 N -4.49434803750000 1.54422920625000 3.64929825625000 
 N -4.24360903750000 4.72735820625000 3.54339525625000 
 N -4.73438603750000 1.58912320625000 7.50687125625000 
 N -4.79436503750000 4.47946720625000 7.46484825625000 
 S -5.70959903750000 1.50261920625000 6.17772325625000 
 S -5.69096703750000 4.34500620625000 6.06364025625000 
 S -3.00297903750000 1.60669320625000 3.19206925625000 
 S -2.69671603750000 5.13275820625000 3.17726725625000 
 S -3.10137603750000 1.62066020625000 7.29668425625000 
 S -3.15213903750000 4.86831020625000 7.23102325625000 
