16

 C -3.15987969375001 1.04588277187500 5.45139834687500 
 C -3.07928169375001 4.64822777187500 5.50278034687500 
 C -4.38097969375001 0.587563771875001 4.78609434687500 
 C -4.40640869375001 4.73726077187500 4.92695734687500 
 N -2.17329669375001 1.39144077187500 4.60804034687500 
 N -2.09609469375001 4.45629577187500 4.60916534687500 
 N -4.27532969375001 0.499753771875000 3.45952034687500 
 N -4.44817769375001 4.67263177187500 3.57661034687500 
 N -4.82993069375001 0.562217771875001 7.30423234687500 
 N -4.89251969375001 4.91021077187500 7.45417734687500 
 S -5.65774969375001 0.198842771875000 5.91869534687500 
 S -5.74936369375001 4.79265777187500 6.02668734687500 
 S -2.79039469375001 1.14478777187500 3.07789834687500 
 S -2.88231869375001 4.42702077187500 3.11485234687500 
 S -3.20943269375001 0.944222771875000 7.13624334687500 
 S -3.17035469375001 4.85575777187500 7.32482334687500 
