16

 C -3.28511298125000 1.35265107187500 5.51696617812500 
 C -3.24404998125000 5.02435607187500 5.46575417812500 
 C -4.55517698125000 1.02788107187500 4.91983317812500 
 C -4.49292998125000 4.73481707187500 4.81276117812500 
 N -2.25553198125000 1.50596307187500 4.68688417812500 
 N -2.24818298125000 5.28299607187500 4.62574717812500 
 N -4.48113398125000 0.902390071874999 3.59912917812500 
 N -4.37149798125000 4.51277907187500 3.50667817812500 
 N -4.98176098125000 1.05240607187500 7.51302317812500 
 N -4.94603098125000 4.73984007187500 7.33703317812500 
 S -5.83398698125000 0.790956071874999 6.11835617812500 
 S -5.75883798125000 4.46760807187500 5.91493517812500 
 S -2.88486498125000 1.13917207187500 3.19320917812500 
 S -2.83234998125000 4.94895207187500 3.10414117812500 
 S -3.38249298125000 1.45289207187500 7.24012017812500 
 S -3.29723498125000 5.15139307187500 7.19635117812500 
