16

 C -2.89331453125000 2.03773584062500 5.38449751875000 
 C -3.01322553125000 5.13997984062500 5.45249251875000 
 C -4.06351053125000 1.41979384062500 4.78498251875000 
 C -4.22007453125000 4.92730484062500 4.74548951875000 
 N -1.87117653125000 2.28277384062500 4.57131551875000 
 N -1.90646453125000 5.15894384062500 4.67320951875000 
 N -3.92964653125000 1.23053584062500 3.45058851875000 
 N -4.15123353125000 4.89875084062500 3.40957051875000 
 N -4.62023653125000 1.83078184062500 7.33993451875000 
 N -4.96174853125000 4.95522084062500 7.22634151875000 
 S -5.44363153125000 1.45779384062500 5.94816651875000 
 S -5.59037753125000 4.54438384062500 5.72008851875000 
 S -2.40794153125000 1.71234184062500 3.05831151875000 
 S -2.52936253125000 5.04646384062500 3.10373951875000 
 S -3.02445453125000 2.28723784062500 7.09532551875000 
 S -3.38099853125000 5.31330584062500 7.16102351875000 
