16

 C -2.98496125000000 1.64149853125000 5.53171853437500 
 C -3.05268325000000 5.30785353125000 5.48954353437500 
 C -4.16079725000000 1.13090553125000 4.88307853437500 
 C -4.33376125000000 5.02467153125000 4.85973053437500 
 N -1.93310225000000 1.71938653125000 4.71769953437500 
 N -1.97718125000000 5.31039353125000 4.73336753437500 
 N -4.04533725000000 0.883202531250000 3.57618353437500 
 N -4.19621625000000 4.84815653125000 3.55949853437500 
 N -4.84291725000000 1.43598453125000 7.40497353437500 
 N -4.76862925000000 5.20042753125000 7.35422053437500 
 S -5.53225225000000 0.917586531250000 5.99274553437500 
 S -5.64855125000000 4.82130253125000 5.98964653437500 
 S -2.52643225000000 1.36886553125000 3.10940653437500 
 S -2.56403825000000 5.06016353125000 3.17965953437500 
 S -3.22035225000000 1.86612353125000 7.29245953437500 
 S -3.18259225000000 5.57998253125000 7.18925153437500 
