16

 C -3.16150168125000 1.28847615625000 5.27117323125000 
 C -2.87378368125000 5.00814315625000 5.66905723125000 
 C -4.27520468125000 0.800555156249996 4.62411823125000 
 C -4.08507268125000 4.48715615625000 5.12635823125000 
 N -2.14614868125000 1.58175915625000 4.50471923125000 
 N -1.94818168125000 5.23435815625000 4.71727123125000 
 N -4.08814768125000 0.637974156249997 3.33451123125000 
 N -4.07142468125000 4.21947715625000 3.82264723125000 
 N -4.82655368125000 0.739306156249996 7.07240223125000 
 N -4.52796068125000 4.63279415625000 7.66964323125000 
 S -5.61149768125000 0.298019156249996 5.63257823125000 
 S -5.41660468125000 4.49751715625000 6.23740123125000 
 S -2.62530068125000 1.30445615625000 2.99929123125000 
 S -2.65127668125000 4.80979515625000 3.29175823125000 
 S -3.32520968125000 1.40277415625000 6.98658723125000 
 S -2.95497068125000 5.12854815625000 7.38855623125000 
