16

 C -3.23284411562500 1.51339021250000 5.45247095312500 
 C -3.17178011562500 5.04657721250000 5.65418995312500 
 C -4.50298811562500 1.14944121250000 4.77964195312500 
 C -4.35244811562500 4.57596821250000 4.99382395312500 
 N -2.22946811562500 1.65874521250000 4.60618995312500 
 N -2.11160711562500 5.23426021250000 4.82541795312500 
 N -4.40420411562500 1.04862121250000 3.44659395312500 
 N -4.16096511562500 4.24036421250000 3.70550095312500 
 N -4.95280111562500 1.39047221250000 7.33016495312500 
 N -4.86877511562500 4.68918421250000 7.54823195312500 
 S -5.74816811562500 0.934441212500000 5.98819495312500 
 S -5.66670811562500 4.27104121250000 6.10330795312500 
 S -2.81297811562500 1.43737521250000 3.08533295312500 
 S -2.63014911562500 4.70705221250000 3.35362095312500 
 S -3.29830011562500 1.72273421250000 7.21062095312500 
 S -3.33634311562500 5.35728621250000 7.28143695312500 
