16

 C -3.05880762812500 1.27160935312500 5.51717666875000 
 C -3.24090862812500 5.05364235312500 5.46684366875000 
 C -4.34697962812500 1.05512035312500 4.84688066875000 
 C -4.47186962812500 4.65888635312500 4.84789466875000 
 N -2.01069362812500 1.26621935312500 4.69506366875000 
 N -2.19390962812500 4.97597235312500 4.66409866875000 
 N -4.30386562812500 0.886343353124998 3.50753666875000 
 N -4.38058462812500 4.39729235312500 3.54876066875000 
 N -4.96737062812500 1.41938535312500 7.35379366875000 
 N -5.03330862812500 5.13261035312500 7.32028466875000 
 S -5.71905762812500 1.50599835312500 5.89757666875000 
 S -5.82195862812500 4.48710535312500 6.01642666875000 
 S -2.64760662812500 0.987858353124998 3.19486666875000 
 S -2.70626562812500 4.55667235312500 3.21575566875000 
 S -3.29526562812500 1.45947135312500 7.30626166875000 
 S -3.41835962812500 5.55648735312500 7.12000066875000 
