16

 C -3.17564288437500 1.65436627500000 5.38854380937500 
 C -3.02523788437500 4.96917227500000 5.46668680937500 
 C -4.35221888437500 1.17794227500000 4.67274280937500 
 C -4.30960588437500 4.65318227500000 4.81768680937500 
 N -2.15689988437500 1.93681527500000 4.56639580937500 
 N -1.96358088437500 5.09998027500000 4.69508380937500 
 N -4.23203188437500 1.21976827500000 3.34726180937500 
 N -4.14431788437500 4.66778127500000 3.50311980937500 
 N -5.01064788437500 1.05483927500000 7.22446780937500 
 N -4.84457288437500 4.95704327500000 7.34162780937500 
 S -5.71015888437500 0.924771275000001 5.76193880937500 
 S -5.73338888437500 4.66291427500000 5.89838780937500 
 S -2.63915888437500 1.61471527500000 3.05422280937500 
 S -2.57075088437500 4.97658927500000 3.14504180937500 
 S -3.42135588437500 1.65005527500000 7.08778780937500 
 S -3.17519088437500 4.98933427500000 7.19890680937500 
