16

 C -3.41271312812501 1.23654243749999 5.30493790625000 
 C -3.12986912812501 5.12176343749999 5.34630290625000 
 C -4.59854612812501 0.720758437499994 4.65217690625000 
 C -4.38429012812501 4.69538843749999 4.82221290625000 
 N -2.40135412812501 1.42228143749999 4.52326690625000 
 N -2.19030112812501 5.10900843749999 4.41991790625000 
 N -4.38887312812501 0.378939437499993 3.37773690625000 
 N -4.38828812812501 4.34188743749999 3.53480490625000 
 N -5.09189312812501 0.903908437499993 7.22725890625000 
 N -4.84180912812501 4.79828243749999 7.20895190625000 
 S -5.98739212812501 0.697312437499994 5.79470890625000 
 S -5.71141812812501 4.73544643749999 5.83669090625000 
 S -2.75812512812501 0.824545437499992 3.04774290625000 
 S -2.86723812812501 4.57704543749999 2.96871290625000 
 S -3.45491612812501 1.44896543749999 6.94901790625000 
 S -3.35586412812501 5.44057543749999 7.07953190625000 
