16

 C -3.19529541250000 1.37501345937500 5.53894761250000 
 C -3.09532841250000 5.00982345937500 5.68291461250000 
 C -4.44870541250000 0.846602459375004 5.00723761250000 
 C -4.29585641250000 4.40732945937500 5.13110961250000 
 N -2.24433741250000 1.47875545937500 4.57038161250000 
 N -2.09357941250000 5.18338045937500 4.79372561250000 
 N -4.44933241250000 0.606045459375004 3.70104761250000 
 N -4.21827541250000 4.13267745937500 3.83036361250000 
 N -4.86921841250000 1.33059745937500 7.53615561250000 
 N -4.98682941250000 4.75224845937500 7.60885261250000 
 S -5.71914341250000 0.907880459375003 6.14065661250000 
 S -5.72240241250000 4.23156045937500 6.17101761250000 
 S -2.86100741250000 0.910162459375004 3.18770261250000 
 S -2.74234641250000 4.67807045937500 3.30697461250000 
 S -3.33297741250000 1.74477845937500 7.27147161250000 
 S -3.34184541250000 5.26324945937500 7.41257561250000 
