16

 C -3.11212600937500 1.21849623437500 5.67965622812500 
 C -3.00453700937500 5.14897523437500 5.52871622812500 
 C -4.45114100937500 1.12192023437500 4.97099322812500 
 C -4.23936000937500 4.82637423437500 4.84649922812500 
 N -2.07093500937500 1.56326623437500 4.89471922812500 
 N -2.00013800937500 5.33511723437500 4.67599222812500 
 N -4.33742800937500 1.29591623437500 3.68266622812500 
 N -4.16297700937500 4.68938623437500 3.55214822812500 
 N -5.02996000937500 1.00985523437500 7.37224222812500 
 N -4.92693100937500 5.07743123437500 7.37157222812500 
 S -5.86000000937500 0.973708234374998 5.92764922812500 
 S -5.58238500937500 4.62534823437500 5.86868722812500 
 S -2.77456700937500 1.63157323437500 3.31361922812500 
 S -2.64251300937500 5.16587523437500 3.12532322812500 
 S -3.37439600937500 1.29348623437500 7.39482722812500 
 S -3.33708800937500 5.54576223437500 7.17496522812500 
