16

 C -3.19592027500000 0.878267506250003 5.69411603125000 
 C -3.02885227500000 5.09992850625000 5.44320303125000 
 C -4.39830527500000 0.577365506250003 4.94089203125000 
 C -4.15715227500000 4.57283050625000 4.74590303125000 
 N -2.07951027500000 1.13319850625000 4.95577803125000 
 N -1.97159627500000 5.28130350625000 4.68644403125000 
 N -4.21670727500000 0.463772506250002 3.60573003125000 
 N -3.96149327500000 4.31180750625000 3.46132203125000 
 N -5.12484827500000 0.748976506250003 7.35221703125000 
 N -4.80902327500000 4.79702050625000 7.28120703125000 
 S -5.85184327500000 0.322981506250002 5.84154603125000 
 S -5.47146527500000 4.27165850625000 5.82659003125000 
 S -2.63197927500000 0.947929506250003 3.39276503125000 
 S -2.38470527500000 4.77509250625000 3.17185403125000 
 S -3.48237927500000 0.977156506250003 7.35268603125000 
 S -3.12072827500000 5.17118650625000 7.16420003125000 
