16

 C -3.22058560312500 1.50453800937500 5.40432785625000 
 C -3.40793560312500 5.29826200937500 5.30479685625000 
 C -4.30508460312500 0.747703009375000 4.96927385625000 
 C -4.46226760312500 4.56543100937500 4.65338985625000 
 N -2.30594260312500 1.67641000937500 4.48037485625000 
 N -2.36993160312500 5.60416900937500 4.51725585625000 
 N -4.30795560312500 0.419226009375000 3.69160085625000 
 N -4.21536660312500 4.41232300937500 3.32910285625000 
 N -4.74407760312500 1.20590900937500 7.42827385625000 
 N -5.15418360312500 4.80254600937500 7.19802585625000 
 S -5.55315360312500 0.533650009375000 6.14223085625000 
 S -5.78513360312500 4.06595700937500 5.84895785625000 
 S -2.90647760312500 0.964224009375000 3.09423785625000 
 S -2.79099660312500 5.12184600937500 2.98740685625000 
 S -3.25303760312500 1.92280100937500 7.07688785625000 
 S -3.63178360312500 5.56416600937500 6.99776685625000 
