16

 C -3.33032565312500 1.15254729062501 5.51381833437500 
 C -3.15505065312500 5.02849629062501 5.31064433437500 
 C -4.46564165312500 0.604450290625005 4.80042533437500 
 C -4.39405965312500 4.64682829062501 4.60313033437500 
 N -2.30786865312500 1.43113829062501 4.68838433437500 
 N -2.05245265312500 4.96874829062500 4.59055333437500 
 N -4.33924165312500 0.540767290625006 3.48770033437500 
 N -4.15217565312500 4.36060529062500 3.33507233437500 
 N -5.41987865312500 1.17321229062500 7.07099433437500 
 N -4.99916865312500 5.35134829062500 7.07657633437500 
 S -5.89791965312500 0.233023290625005 5.75623233437500 
 S -5.79570365312500 4.82235129062501 5.70899033437500 
 S -2.80470165312500 0.951186290625005 3.19121133437500 
 S -2.45688065312500 4.53585629062501 3.10688433437500 
 S -3.81600865312500 1.58894029062501 7.20932933437500 
 S -3.39938465312500 5.54856729062501 6.99343533437500 
