16

 C -3.03886171875000 1.51026009687499 5.60081203750000 
 C -2.98994071875000 5.32785509687500 5.39372803750000 
 C -4.29558571875000 1.00211309687500 5.12021203750000 
 C -4.21606671875000 4.88853909687500 4.77323003750000 
 N -2.11782471875000 1.66388709687500 4.60277003750000 
 N -2.02741971875000 5.53520309687500 4.56136603750000 
 N -4.31201971875000 0.741189096874995 3.80291903750000 
 N -4.13006671875000 4.72444309687500 3.46040303750000 
 N -4.64445771875000 1.19133509687499 7.58300403750000 
 N -4.54656271875000 4.84542809687500 7.36957403750000 
 S -5.54393871875000 0.850788096874996 6.27487703750000 
 S -5.44442371875000 4.64456209687499 5.99429203750000 
 S -2.84520571875000 1.15403709687499 3.22312303750000 
 S -2.55122771875000 5.23860509687500 3.07276403750000 
 S -3.04276171875000 1.60852009687499 7.43713803750000 
 S -2.99863371875000 5.42899809687500 7.10541803750000 
