16

 C -3.14371385312500 1.46515870000000 5.70576888750000 
 C -3.06057285312500 4.59835770000000 5.42581188750000 
 C -4.36067685312500 1.02788170000000 5.09593188750000 
 C -4.26644985312500 4.05318370000000 4.79376088750000 
 N -2.08024585312500 1.52087570000000 4.89690688750000 
 N -2.02905585312500 4.82079670000000 4.59975088750000 
 N -4.27960885312500 0.835551700000002 3.77795288750000 
 N -4.13138085312500 3.81648770000000 3.49977288750000 
 N -4.85322185312500 1.29026470000000 7.67169888750000 
 N -4.80726685312500 4.52317670000000 7.23191188750000 
 S -5.68709485312500 0.987222700000002 6.28094588750000 
 S -5.62640485312500 4.07514270000000 5.84138888750000 
 S -2.71658085312500 1.09290070000000 3.35532988750000 
 S -2.56420885312500 4.27409070000000 3.12863788750000 
 S -3.25708485312500 1.65512670000000 7.41368288750000 
 S -3.17678685312500 4.75759970000000 7.14523188750000 
