16

 C -3.17377762187500 1.10118708750000 5.59697547812500 
 C -3.57515762187500 4.95642108750000 5.08394447812500 
 C -4.38409362187500 0.691898087499998 4.99156347812500 
 C -4.72350462187500 4.27951208750000 4.51159247812500 
 N -2.27249662187500 1.46202308750000 4.76318947812500 
 N -2.59195162187500 5.31097108750000 4.26243747812500 
 N -4.39079062187500 0.678537087499999 3.68003147812500 
 N -4.48512062187500 3.92801508750000 3.24425447812500 
 N -4.72687762187500 0.773406087499999 7.53211847812500 
 N -5.31407562187500 4.69911908750000 6.91518947812500 
 S -5.62969762187500 0.558758087499998 6.14969447812500 
 S -5.94916462187500 3.85608808750000 5.67988847812500 
 S -2.80424262187500 1.05910308750000 3.23452447812500 
 S -3.00809762187500 4.55120308750000 2.80225147812500 
 S -3.15300662187500 1.28749008750000 7.30346047812500 
 S -3.72196962187500 5.19899608750000 6.76564147812500 
