16

 C -3.00851803750000 1.28559460312500 5.63713650624999 
 C -3.19113303750000 5.32399660312500 5.33091750625000 
 C -4.17053003750000 0.709000603125000 5.02148550625000 
 C -4.16528203750000 4.29764260312500 4.95922650625000 
 N -1.93963403750000 1.49020960312500 4.85146750625000 
 N -2.18063303750000 5.51061660312500 4.51720950625000 
 N -4.03949303750000 0.541507603125000 3.73266050625000 
 N -4.01049603750000 3.91424460312500 3.72260850625000 
 N -4.86734003750000 1.00436960312500 7.45113050625000 
 N -4.92704303750000 5.15828760312500 7.24544250625000 
 S -5.52324603750000 0.422875603125000 6.03939350625000 
 S -5.51071203750000 4.09328060312500 6.05742950625000 
 S -2.42996703750000 0.950348603125000 3.40159250625000 
 S -2.54369403750000 4.51852560312500 3.21624450625000 
 S -3.27967303750000 1.59180060312500 7.30718550625000 
 S -3.46308903750000 5.91832960312500 6.93982050625000 
