16

 C -3.04892242187500 1.63777953750000 5.67858122812500 
 C -3.06266142187500 5.36115353750000 5.71260622812500 
 C -4.15576942187500 0.967256537499998 5.05345622812500 
 C -4.32794642187500 4.98829753750000 5.12292322812500 
 N -1.99467942187500 1.84825653750000 4.94607822812500 
 N -2.00972642187500 5.43349253750000 4.88228622812500 
 N -3.87576542187500 0.508422537499998 3.83489122812500 
 N -4.23012942187500 4.63852853750000 3.84709622812500 
 N -4.80832842187500 1.40906353750000 7.54094122812500 
 N -4.90768642187500 5.25852653750000 7.55415922812500 
 S -5.51391742187500 0.779125537499998 6.12284822812500 
 S -5.67708042187500 4.86244753750000 6.14437322812500 
 S -2.38497642187500 1.17955953750000 3.40103722812500 
 S -2.66307342187500 4.99785353750000 3.35908922812500 
 S -3.28217142187500 2.06079153750000 7.35446722812500 
 S -3.29694042187500 5.58671453750000 7.43060222812500 
