16

 C -3.00976024062500 1.27948673750000 5.63867287500000 
 C -3.18854524062500 5.33129673750000 5.33658187500000 
 C -4.16750424062500 0.706676737499997 5.01910387500000 
 C -4.16681524062500 4.30780673750000 4.95483587500000 
 N -1.95033524062500 1.49398973750000 4.84842087500000 
 N -2.18467424062500 5.51807873750000 4.51845487500000 
 N -4.04358824062500 0.540479737499997 3.73586487500000 
 N -4.01062824062500 3.91107773750000 3.72171587500000 
 N -4.87368324062500 1.00651173750000 7.44784687500000 
 N -4.92861524062500 5.15648073750000 7.24147587500000 
 S -5.52090724062500 0.415082737499996 6.03614787500000 
 S -5.51256724062500 4.09415973750000 6.05749487500000 
 S -2.42878824062500 0.947972737499996 3.40098987500000 
 S -2.54787824062500 4.51997473750000 3.21359987500000 
 S -3.27670924062500 1.59546173750000 7.31343887500000 
 S -3.47231824062500 5.91489273750000 6.93873787500000 
