16

 C -3.25260570312500 1.04143366562500 5.54276318437500 
 C -3.19609570312500 5.09798366562500 5.74279718437500 
 C -4.47122870312500 0.796248665624999 4.84772318437500 
 C -4.37053970312500 4.55042766562500 5.07808118437500 
 N -2.23640570312500 1.22825666562500 4.71397618437500 
 N -2.22212870312500 5.43566966562500 4.87858718437500 
 N -4.42261770312500 0.795158665624999 3.52163318437500 
 N -4.23326170312500 4.28822966562500 3.77742718437500 
 N -5.02740170312500 0.520378665624999 7.30061518437500 
 N -4.84491670312500 4.43757166562500 7.56223818437500 
 S -5.82562570312500 0.492994665624999 5.83369118437500 
 S -5.74205970312500 4.17444266562500 6.15910018437500 
 S -2.81253370312500 0.970768665625000 3.17320918437500 
 S -2.76913070312500 4.97044266562500 3.37256118437500 
 S -3.38999470312500 0.936761665625000 7.31714418437500 
 S -3.44570970312500 5.31122166562500 7.44679018437500 
