16

 C -3.22592315937500 1.49860790312500 5.42134981250000 
 C -3.11855815937500 5.04362990312500 5.63918381250000 
 C -4.48940715937500 1.18919990312500 4.77585181250000 
 C -4.35281215937500 4.61547990312500 4.99656481250000 
 N -2.20798115937500 1.72524190312500 4.62998781250000 
 N -2.09902315937500 5.22970790312500 4.81029081250000 
 N -4.38583315937500 1.10977690312500 3.43723681250000 
 N -4.13537515937500 4.26124690312500 3.72199181250000 
 N -4.96612215937500 1.36022190312500 7.32142781250000 
 N -4.85886415937500 4.68584090312500 7.51794081250000 
 S -5.72632615937500 0.940594903125003 5.97665281250000 
 S -5.69540815937500 4.28511090312500 6.09671781250000 
 S -2.81573515937500 1.45736890312500 3.06410181250000 
 S -2.61380415937500 4.70256390312500 3.31770581250000 
 S -3.32634715937500 1.71682090312500 7.19799181250000 
 S -3.33947415937500 5.36008390312500 7.28976581250000 
