16

 C -2.77889415312500 1.28485572500001 5.44794382500000 
 C -2.99101715312500 5.15601072500001 5.69631682500000 
 C -4.06894215312500 1.08479172500001 4.87559782500000 
 C -4.13918715312500 4.62034472500001 4.99358682500000 
 N -1.84102215312500 1.45209472500001 4.48563282500000 
 N -1.97115515312500 5.36280372500001 4.85282682500000 
 N -4.11861415312500 0.968941725000007 3.54072182500000 
 N -4.03151115312500 4.46914872500001 3.68849882500000 
 N -4.54622015312500 1.28759672500001 7.38612282500000 
 N -4.88811715312500 4.90629372500001 7.45011782500000 
 S -5.37564215312500 1.02044772500001 6.00946282500000 
 S -5.47107815312500 4.29455872500001 6.01872582500000 
 S -2.52241815312500 1.28490772500001 2.95462882500000 
 S -2.51535315312500 5.01132672500001 3.31020282500000 
 S -2.94111715312500 1.59507072500001 7.17712982500000 
 S -3.30270315312500 5.40584372500001 7.46838782500000 
