16

 C -3.04075648750000 1.56976955312500 5.68951590937500 
 C -3.02955448750000 5.27700455312500 5.81844290937500 
 C -4.26744248750000 1.04797755312500 5.02341290937500 
 C -4.26727048750000 4.94896955312500 5.15266090937500 
 N -1.97876648750000 1.56729755312500 4.87707690937500 
 N -1.92535948750000 5.31611855312500 5.05870790937500 
 N -4.13257248750000 0.884133553125002 3.69292690937500 
 N -4.10153948750000 4.87163255312500 3.84374990937500 
 N -4.95586648750000 1.33666155312500 7.44339290937500 
 N -4.88746948750000 5.08359555312500 7.63222790937500 
 S -5.58223648750000 0.689784553125002 6.02840890937500 
 S -5.65010748750000 4.75945055312500 6.20386790937500 
 S -2.58652148750000 1.26031855312500 3.38638590937500 
 S -2.53485248750000 5.13587055312500 3.50542690937500 
 S -3.32148348750000 1.81774455312500 7.42233090937500 
 S -3.28586148750000 5.41069455312500 7.53047390937500 
