16

 C -3.12122201875000 1.13571959062500 5.77385360312500 
 C -3.19666401875000 4.97999159062500 5.54156560312500 
 C -4.36377501875000 0.882077590625000 5.20700360312500 
 C -4.45112501875000 4.58433459062500 4.93974960312500 
 N -2.12577401875000 1.19078059062500 4.92203260312500 
 N -2.20015901875000 5.15898959062500 4.71579760312500 
 N -4.33508101875000 0.593732590625001 3.90512960312500 
 N -4.38523201875000 4.49355859062500 3.62083260312500 
 N -4.76822901875000 1.47402759062500 7.59613360312500 
 N -4.83893201875000 5.01819659062500 7.52495260312500 
 S -5.67001701875000 1.11965559062500 6.29364960312500 
 S -5.73571301875000 4.52240759062500 6.11703960312500 
 S -2.73304101875000 0.749266590625001 3.51763260312500 
 S -2.80332001875000 4.93024559062500 3.21381560312500 
 S -3.14792201875000 1.73369659062500 7.36317460312500 
 S -3.21056201875000 5.47231159062500 7.26034760312500 
