16

 C -2.93413184062500 1.38544335000000 5.54489190937500 
 C -3.10828784062500 5.20593435000000 5.12949290937500 
 C -4.12894784062500 0.991038350000001 4.86571090937500 
 C -4.35874584062500 4.76030135000000 4.61983890937500 
 N -1.76564884062500 1.38919935000000 4.82818090937500 
 N -2.07679384062500 5.27760035000000 4.30652190937500 
 N -3.92346684062500 0.701325350000000 3.58412490937500 
 N -4.31436084062500 4.51326535000000 3.30493790937500 
 N -4.92274084062500 1.52121535000000 7.22377790937500 
 N -4.71100084062500 4.89249535000000 7.09186490937500 
 S -5.60662784062500 0.857922350000001 5.84154190937500 
 S -5.64571384062500 4.81339835000000 5.74043490937500 
 S -2.29453584062500 0.953691350000001 3.26485190937500 
 S -2.71955384062500 4.89222435000000 2.84968290937500 
 S -3.25727184062500 1.60133235000000 7.24634090937500 
 S -3.14490684062500 5.36010235000000 6.86423790937500 
