16

 C -2.89070886250000 1.57557108437500 5.80415414687500 
 C -3.30849886250000 5.34649008437500 5.52428314687500 
 C -4.17879286250000 1.43589508437500 5.14774614687500 
 C -4.54919386250000 4.89547208437500 4.90047314687500 
 N -1.84994586250000 1.70409508437500 4.98584414687500 
 N -2.34539886250000 5.64010908437500 4.62372314687500 
 N -4.04698186250000 1.33559708437500 3.83121014687500 
 N -4.57185786250000 4.82516508437500 3.57233514687500 
 N -4.60922186250000 1.47643208437500 7.70602214687500 
 N -5.07659086250000 5.05803208437500 7.40844714687500 
 S -5.46824986250000 1.42786008437500 6.27654314687500 
 S -5.82569986250000 4.64764408437500 5.99943214687500 
 S -2.49179286250000 1.58217008437500 3.40586814687500 
 S -3.06189186250000 5.25045308437500 3.12142014687500 
 S -2.90296286250000 1.57729408437500 7.54000714687500 
 S -3.46104986250000 5.56692808437500 7.24110014687500 
