16

 C -3.05463529687500 1.52381700312500 5.63599284375000 
 C -3.06626929687500 5.19846000312500 5.65887984375000 
 C -4.36991529687500 1.21367000312500 5.06491384375000 
 C -4.30291129687500 4.87087000312500 4.97522484375000 
 N -2.06332629687500 1.82656700312500 4.78963284375000 
 N -2.04780929687500 5.46647400312500 4.85628584375000 
 N -4.37818229687500 1.39264800312500 3.74992084375000 
 N -4.23457329687500 4.89889300312500 3.66515384375000 
 N -4.76000029687500 1.60116000312500 7.52245684375000 
 N -4.87921229687500 4.94141100312500 7.47228084375000 
 S -5.67346329687500 1.29203000312500 6.15699084375000 
 S -5.62484129687500 4.57830900312500 6.00865184375000 
 S -2.81539129687500 1.68863400312500 3.29019284375000 
 S -2.60463729687500 5.22444100312500 3.31503584375000 
 S -3.11148629687500 1.82343300312500 7.33481984375000 
 S -3.22844129687500 5.28523300312500 7.40282084375000 
