16

 C -3.13108056875000 1.43827351250000 5.38325810312500 
 C -3.22250856875000 5.27304951250000 5.70607610312500 
 C -4.25527156875000 0.662065512500001 4.88596210312500 
 C -4.37158456875000 4.71006551250000 5.05793210312500 
 N -2.18068556875000 1.59792351250000 4.44682710312500 
 N -2.11216956875000 5.38208651250000 4.94058810312500 
 N -4.13704256875000 0.172908512500001 3.66653010312500 
 N -4.21773156875000 4.47323351250000 3.75742410312500 
 N -4.98031456875000 1.53263851250000 7.15340810312500 
 N -4.99389156875000 5.02128151250000 7.58885210312500 
 S -5.66249356875000 0.746369512500001 5.86176210312500 
 S -5.74726956875000 4.54294651250000 6.18656610312500 
 S -2.63802056875000 0.650603512500001 3.10224110312500 
 S -2.66689156875000 4.94506351250000 3.39120810312500 
 S -3.43628356875000 2.06432251250000 6.98202610312500 
 S -3.50700756875000 5.74024951250000 7.33702910312500 
