16

 C -3.18050424375000 1.44115138437500 5.40976607812500 
 C -3.27534124375000 5.15248438437500 5.40029107812500 
 C -4.27523824375000 0.765157384374999 4.90824307812500 
 C -4.53672124375000 4.70013638437500 4.86042907812500 
 N -2.18809924375000 1.57341738437500 4.54861007812500 
 N -2.34596224375000 5.24966838437500 4.45393907812500 
 N -4.19228324375000 0.382951384374999 3.65026507812500 
 N -4.49565724375000 4.32385838437500 3.59234507812500 
 N -4.91920324375000 1.38057238437500 7.28297107812500 
 N -4.91857224375000 5.09442238437500 7.36869507812500 
 S -5.56370624375000 0.474518384374999 6.03199407812500 
 S -5.83600824375000 4.76088238437500 5.98654107812500 
 S -2.69826824375000 0.793585384374999 3.17845607812500 
 S -2.93825124375000 4.56684838437500 3.08348807812500 
 S -3.35724124375000 1.93354338437500 7.11536207812500 
 S -3.32305024375000 5.55001338437500 7.11056207812500 
