16

 C -2.98262581562500 1.40816496562500 5.36733576562500 
 C -3.39657381562500 5.33783996562500 5.21419476562500 
 C -4.15930881562500 0.940560965625002 4.70090476562500 
 C -4.42922881562500 4.43045396562500 4.75715676562500 
 N -1.89064181562500 1.51907796562500 4.64267076562500 
 N -2.29462581562500 5.35581096562500 4.49492676562500 
 N -3.96401381562500 0.816276965625002 3.39059076562500 
 N -4.22973381562500 3.97198296562500 3.53214276562500 
 N -4.73287181562500 1.26010996562500 7.29995476562500 
 N -5.18312681562500 5.19762696562500 7.03136376562500 
 S -5.43869681562500 0.959261965625002 5.86502276562500 
 S -5.78789281562500 4.31330796562500 5.79208176562500 
 S -2.34272681562500 1.16827696562500 3.03779376562500 
 S -2.71071181562500 4.48197096562500 3.07702176562500 
 S -3.12293881562500 1.65356196562500 7.13255576562500 
 S -3.75941681562500 5.94156696562500 6.85110976562500 
