16

 C -2.86260487187499 1.27070025625000 5.70022916562500 
 C -2.92659387187499 4.87884225625000 5.39578316562500 
 C -4.24234187187499 1.20519225625000 5.17198316562500 
 C -4.16861487187499 4.60305025625000 4.76377916562500 
 N -1.92796287187499 1.06343725625000 4.79705516562500 
 N -1.84299387187499 4.85356825625000 4.62868116562500 
 N -4.32737987187499 0.812520256249998 3.91196916562500 
 N -3.98996387187499 4.33805125625000 3.44724416562500 
 N -4.52977987187499 1.53278725625000 7.61790916562500 
 N -4.78949287187499 4.85084225625000 7.29151516562500 
 S -5.47898387187499 1.45677925625000 6.30370816562500 
 S -5.58072787187499 4.48016625625000 5.82414416562500 
 S -2.70936687187499 0.597312256250000 3.37855516562500 
 S -2.32152587187499 4.41741525625000 3.09676516562500 
 S -2.89494087187499 1.55227725625000 7.43480616562500 
 S -3.07890687187499 4.92150925625000 7.13077116562500 
