16

 C -2.92211754375000 1.44187783437500 5.29836039687500 
 C -3.21283854375000 5.11998683437500 5.48977239687500 
 C -4.26055754375000 1.05960483437500 4.73564539687500 
 C -4.36854154375000 4.68637283437500 4.73591439687500 
 N -1.98622454375000 1.60147683437500 4.38564439687500 
 N -2.15292754375000 5.40666683437500 4.74760539687500 
 N -4.23826654375000 0.916061834375002 3.39180739687500 
 N -4.15524454375000 4.52745783437500 3.42936239687500 
 N -4.51556254375000 1.14640083437500 7.33865439687500 
 N -5.03195254375000 4.75974583437500 7.26622139687500 
 S -5.46446954375000 0.868475834375002 6.01286439687500 
 S -5.72190154375000 4.21859883437500 5.79063639687500 
 S -2.65752354375000 1.30635983437500 2.88099239687500 
 S -2.60480054375000 5.13283383437500 3.16639839687500 
 S -2.97822354375000 1.58352283437500 6.98262339687500 
 S -3.41874654375000 5.23767483437500 7.19888139687500 
