16

 C -2.98072878437500 1.53098697187500 5.37668780937500 
 C -3.16432278437500 5.14880397187500 5.38583180937500 
 C -4.24419878437500 1.07521797187500 4.64134180937500 
 C -4.31790078437500 4.50065997187500 4.86433980937500 
 N -1.89677478437500 1.67664897187500 4.62716480937500 
 N -2.09500178437500 5.36226797187500 4.61211080937500 
 N -4.03944078437500 1.01088197187500 3.34215780937500 
 N -4.16887478437500 4.25213897187500 3.56744280937500 
 N -4.80993278437500 1.21501597187500 7.15980980937500 
 N -4.74400578437500 4.69792497187500 7.37820280937500 
 S -5.57761378437500 1.02858197187500 5.70070280937500 
 S -5.59148978437500 4.23080097187500 6.02942380937500 
 S -2.40064978437500 1.23403797187500 3.05589180937500 
 S -2.63004978437500 4.75050297187500 3.12257180937500 
 S -3.20536378437500 1.66948597187500 7.07285680937500 
 S -3.23694478437500 5.27852097187500 7.07063680937500 
