16

 C -3.29075826562500 1.03878162500000 5.65157154687500 
 C -2.85491226562500 4.95215962500000 5.52687054687500 
 C -4.45337726562500 0.571860625000000 4.89489454687500 
 C -4.05591626562500 4.48710662500000 4.87100354687500 
 N -2.26343326562500 1.42827562500000 4.88627954687500 
 N -1.87930926562500 5.32759462500000 4.66429654687500 
 N -4.25489526562500 0.394486625000000 3.60286154687500 
 N -3.90203926562500 4.28373162500000 3.55939754687500 
 N -5.14586126562500 0.737056625000000 7.49931054687500 
 N -4.69430226562500 4.68966362500000 7.34697454687500 
 S -5.85359726562500 0.353294625000000 5.99277754687500 
 S -5.43984926562500 4.36868262500000 5.94188954687500 
 S -2.63602326562500 0.869697625000000 3.35164354687500 
 S -2.42001926562500 4.91645162500000 3.14295154687500 
 S -3.52017426562500 1.08021162500000 7.47106654687500 
 S -3.12137326562500 5.20831362500000 7.24758654687500 
