16

 C -2.85415910625000 1.19759436250000 5.45788373125000 
 C -2.92780410625000 5.00693236250000 5.68802173125000 
 C -4.05353410625000 0.734821362500000 4.75739073125000 
 C -4.17721010625000 4.58968136250000 5.10290073125000 
 N -1.75491710625000 1.36559436250000 4.70214873125000 
 N -1.92922410625000 5.19627736250000 4.83445873125000 
 N -3.88589310625000 0.469292362500000 3.47818273125000 
 N -4.16611110625000 4.51514536250000 3.76570973125000 
 N -4.85372910625000 1.10010136250000 7.18302873125000 
 N -4.55349310625000 4.85252536250000 7.67865973125000 
 S -5.49781310625000 0.484745362500000 5.77272573125000 
 S -5.37625810625000 4.23261536250000 6.37105373125000 
 S -2.30393010625000 0.853794362500000 3.17798173125000 
 S -2.53068610625000 4.87881536250000 3.33193373125000 
 S -3.28219310625000 1.63479336250000 7.17082573125000 
 S -2.99402110625000 5.40617736250000 7.38824173125000 
