16

 C -3.18196016875000 1.26320996562499 5.41915404062500 
 C -3.16451016875000 5.34158596562500 5.63972204062500 
 C -4.31167316875000 0.606173965624996 4.84336204062500 
 C -4.28508416875000 4.69734396562500 5.01799604062500 
 N -2.10951616875000 1.18545996562499 4.62746204062500 
 N -2.17314516875000 5.57032696562500 4.76626904062500 
 N -4.06160316875000 3.281596562499534E-002 3.65737804062500 
 N -4.11545816875000 4.41484596562500 3.75233604062500 
 N -5.02514416875000 1.23007296562499 7.17380704062500 
 N -4.93249916875000 5.13968996562500 7.46301304062500 
 S -5.74320516875000 0.594750965624995 5.84071404062500 
 S -5.71752616875000 4.75250196562500 6.02891604062500 
 S -2.57389616875000 0.436426965624996 3.20959904062500 
 S -2.63257116875000 4.91528596562500 3.28421104062500 
 S -3.50959716875000 1.87408896562500 7.00425104062500 
 S -3.33449716875000 5.70077696562500 7.34088304062500 
