16

 C -3.17546521250000 1.42277478125000 5.55684305625000 
 C -2.99663621250000 5.31493578125000 5.88287205625000 
 C -4.33154721250000 0.951213781249998 4.90395605625000 
 C -4.14572921250000 4.85050078125000 5.12545705625000 
 N -2.10612321250000 1.69597678125000 4.78658205625000 
 N -1.97851221250000 5.56176578125000 5.07813805625000 
 N -4.19852621250000 0.969536781249999 3.56694805625000 
 N -3.96504521250000 4.64957878125000 3.83141205625000 
 N -4.90622321250000 1.04371178125000 7.47826505625000 
 N -4.81051621250000 4.89977678125000 7.60821005625000 
 S -5.67980321250000 0.712165781249999 6.02316705625000 
 S -5.55763721250000 4.79713678125000 6.16696005625000 
 S -2.59160321250000 1.32829278125000 3.28746705625000 
 S -2.40665021250000 5.09165778125000 3.55920405625000 
 S -3.30956421250000 1.53336078125000 7.31739105625000 
 S -3.20737621250000 5.28414578125000 7.65229305625000 
