16

 C -3.06085193437500 1.28443164375000 5.54790177812500 
 C -2.95670793437500 5.15325864375000 5.60892477812500 
 C -4.21909693437500 0.779204643749998 4.84480277812500 
 C -4.10037293437500 4.49620864375000 5.01471477812500 
 N -1.95048493437500 1.30239564375000 4.83127077812500 
 N -1.92480093437500 5.36346964375000 4.80896377812500 
 N -4.00647593437500 0.463217643749998 3.56006477812500 
 N -3.95659993437500 4.33017464375000 3.70260577812500 
 N -4.85956793437500 0.987352643749999 7.31055377812500 
 N -4.69753893437500 4.66981564375000 7.46859977812500 
 S -5.57287193437500 0.618717643749998 5.81429977812500 
 S -5.45623793437500 4.33449864375000 6.04047077812500 
 S -2.47235693437500 0.837473643749998 3.33848077812500 
 S -2.46068693437500 4.90066464375000 3.30417777812500 
 S -3.22517193437500 1.28463764375000 7.26259077812500 
 S -3.16215393437500 5.36097064375000 7.33186277812500 
