16

 C -3.53878737187500 1.29478469375000 5.49587162187500 
 C -3.01758837187500 5.17479869375000 5.42053362187500 
 C -4.55076937187500 0.609375693749999 4.76526962187500 
 C -4.22272637187500 4.83666469375000 4.74379362187500 
 N -2.41788637187500 1.53944669375000 4.82875862187500 
 N -1.92652537187500 5.02174369375000 4.63537362187500 
 N -4.18210837187500 0.328569693749999 3.48500462187500 
 N -4.07042837187500 4.44273069375000 3.45616562187500 
 N -5.41092737187500 1.04811569375000 7.28452862187500 
 N -5.01786137187500 5.37619769375000 7.00796962187500 
 S -5.89165537187500 0.194076693749999 5.87135362187500 
 S -5.69748437187500 4.84112569375000 5.54496862187500 
 S -2.68607737187500 1.07251069375000 3.31795262187500 
 S -2.46278837187500 4.52592569375000 3.16047262187500 
 S -3.85553537187500 1.66819869375000 7.11023962187500 
 S -3.40035837187500 5.51383569375000 7.12392562187500 
