16

 C -3.71830514062500 1.26749341875000 5.77508589375000 
 C -3.06784114062500 5.06143141875000 5.33618689375000 
 C -4.75974514062500 0.710051418750002 4.96101589375000 
 C -4.30607514062500 4.46131641875000 4.84551689375000 
 N -2.62460014062500 1.56035741875000 5.05822989375000 
 N -2.12987414062500 5.12946541875000 4.38316389375000 
 N -4.53943414062500 0.721896418750002 3.63673489375000 
 N -4.36696014062500 4.24285641875000 3.54948589375000 
 N -5.65067014062500 0.699835418750002 7.34042489375000 
 N -4.80547114062500 4.94456841875000 7.33638989375000 
 S -6.22998114062500 0.350050418750001 5.84870189375000 
 S -5.63878014062500 4.33720241875000 5.99684289375000 
 S -2.88824614062500 1.12994641875000 3.47519589375000 
 S -2.83170814062500 4.62338241875000 2.95583889375000 
 S -4.11871214062500 1.28239441875000 7.43821289375000 
 S -3.24786814062500 5.49931141875000 7.02530489375000 
