16

 C -3.13250568437500 1.48852017812500 5.45413636250000 
 C -3.23607568437500 5.22281817812500 5.35961036250000 
 C -4.30891668437500 0.730159178125003 4.90155236250000 
 C -4.49488668437500 4.69551617812500 4.90039436250000 
 N -2.15733268437500 1.58292617812500 4.53117436250000 
 N -2.25410268437500 5.19525317812500 4.44457036250000 
 N -4.16641668437500 0.432231178125003 3.59686936250000 
 N -4.49677868437500 4.33528017812500 3.62194736250000 
 N -4.97957468437500 1.41712717812500 7.31553436250000 
 N -4.96662268437500 5.16332717812500 7.31705936250000 
 S -5.59967268437500 0.554593178125002 6.03986836250000 
 S -5.83043068437500 4.73821517812500 5.99948536250000 
 S -2.59318568437500 0.817777178125003 3.14760236250000 
 S -2.97628768437500 4.56160517812500 3.08083036250000 
 S -3.39246668437500 1.91133717812500 7.13029536250000 
 S -3.39394468437500 5.57296617812500 7.07363436250000 
