16

 C -3.39505948750000 1.56606967187500 5.39240157500000 
 C -3.17456148750000 5.28049567187500 5.64842757500000 
 C -4.49916048750000 0.960749671874997 4.67150557500000 
 C -4.43684048750000 4.88731967187500 5.05261257500000 
 N -2.35785448750000 1.96760967187500 4.69046057500000 
 N -2.12402248750000 5.28250267187500 4.80570857500000 
 N -4.31803348750000 1.01214667187500 3.38467957500000 
 N -4.41962948750000 4.84747467187500 3.74460357500000 
 N -5.37945348750000 1.51388167187500 7.09278457500000 
 N -4.86030848750000 5.06037467187500 7.50493357500000 
 S -5.99974348750000 0.726220671874997 5.70820557500000 
 S -5.72836248750000 4.69249767187500 6.16627857500000 
 S -2.78238648750000 1.50409167187500 3.12816657500000 
 S -2.75533548750000 5.03226167187500 3.30933857500000 
 S -3.79474748750000 2.02815067187500 7.05898257500000 
 S -3.25072048750000 5.34203467187500 7.39384757500000 
