16

 C -3.10742467187500 1.24648091875000 5.43784077812500 
 C -3.08838667187500 5.05344991875000 5.63357477812500 
 C -4.22747267187500 0.662423918750002 4.72839377812500 
 C -4.15642567187500 4.51758591875000 4.92733877812500 
 N -2.13155767187500 1.75005591875000 4.64476277812500 
 N -1.98835167187500 5.26829591875000 4.89890077812500 
 N -4.00131967187500 0.702525918750003 3.39490977812500 
 N -3.89434267187500 4.28810691875000 3.66048877812500 
 N -4.76886967187500 0.962199918750003 7.33068677812500 
 N -5.11044867187500 5.09040891875000 7.19656477812500 
 S -5.52337367187500 0.365654918750002 5.99295877812500 
 S -5.62087067187500 4.32688191875000 5.74828277812500 
 S -2.52176567187500 1.36643991875000 3.10889077812500 
 S -2.42367267187500 4.83312191875000 3.34288277812500 
 S -3.29302567187500 1.63285891875000 7.15167877812500 
 S -3.55578167187500 5.58454091875000 7.30257277812500 
