16

 C -3.20324835000000 1.28427736562500 5.68999929062500 
 C -3.11084835000000 5.30228036562500 5.49903629062500 
 C -4.43336235000000 1.14101836562500 4.98109129062500 
 C -4.28788935000000 4.76121236562500 4.80763729062500 
 N -2.17006035000000 1.41990836562500 4.83520629062500 
 N -2.07451935000000 5.44520336562500 4.69252229062500 
 N -4.38662935000000 1.30578636562500 3.67091529062500 
 N -4.18833135000000 4.74954736562500 3.49442029062500 
 N -5.01932335000000 0.935643365624999 7.50022729062500 
 N -4.87265635000000 4.93121036562500 7.25466929062500 
 S -5.80588835000000 1.02696036562500 6.01790029062500 
 S -5.66069035000000 4.60769236562500 5.85337329062500 
 S -2.77198035000000 1.45600536562500 3.32791829062500 
 S -2.59871535000000 5.13327436562500 3.14982829062500 
 S -3.40568735000000 1.36198336562500 7.41103229062500 
 S -3.33249835000000 5.58578236562500 7.31258329062500 
