16

 C -3.15315936562500 1.43953249687500 5.32531883750000 
 C -3.16001436562500 5.24424649687500 5.52908383750000 
 C -4.40853936562500 0.979748496875000 4.65710683750000 
 C -4.39805336562500 4.75153949687500 4.95156483750000 
 N -2.20553036562500 1.80411749687500 4.44764383750000 
 N -2.12270736562500 5.38105449687500 4.69481983750000 
 N -4.29849036562500 0.985666496875000 3.33312683750000 
 N -4.30626736562500 4.61418949687500 3.62745583750000 
 N -4.73471236562500 0.554284496875000 7.17676983750000 
 N -4.67515236562500 4.99877149687500 7.53367283750000 
 S -5.56355336562500 0.326765496875000 5.72307283750000 
 S -5.58962436562500 4.47385149687500 6.22525183750000 
 S -2.86074336562500 1.57062449687500 2.88468383750000 
 S -2.75001736562500 4.95731349687500 3.21801583750000 
 S -3.27748836562500 1.37721049687500 7.07374783750000 
 S -3.15605036562500 5.58603149687500 7.24642283750000 
