16

 C -3.20011409375000 1.33586884062500 5.26032098125000 
 C -2.93980809375000 5.32615284062500 5.39101398125000 
 C -4.48801409375000 0.908733840624996 4.67747598125001 
 C -4.09643309375000 4.80309684062500 4.67936698125000 
 N -2.12552409375000 1.23048184062500 4.45681598125000 
 N -1.87529509375000 5.37815584062500 4.59623298125000 
 N -4.38589209375000 0.588253840624996 3.38262998125000 
 N -3.93685309375000 4.53935484062500 3.38563298125000 
 N -4.96511509375000 1.46010584062500 7.23205998125001 
 N -4.71388509375000 4.91165684062500 7.24268998125000 
 S -5.81337009375000 0.920452840624996 5.92612098125000 
 S -5.43996509375000 4.40356184062500 5.81645698125000 
 S -2.77019909375000 0.649858840624996 3.02511798125000 
 S -2.32413709375000 4.90695984062500 3.05493598125000 
 S -3.30527509375000 1.55011584062500 6.99061998125000 
 S -3.10758909375000 5.50542884062500 7.09190898125000 
