16

 C -3.46381877812500 1.36551136562500 5.38686353125000 
 C -3.28421677812500 5.02146736562500 5.76727853125000 
 C -4.61875577812500 0.967153365624998 4.61548153125000 
 C -4.56678877812500 4.73170236562500 5.14332953125000 
 N -2.42094477812500 1.61307236562500 4.63461853125000 
 N -2.25941277812500 5.18989036562500 4.98781353125000 
 N -4.43653577812500 0.923490365624999 3.30541453125000 
 N -4.40915677812500 4.62946536562500 3.84170353125000 
 N -5.28859977812500 0.849720365624998 7.19467553125000 
 N -5.04557777812500 4.95101636562500 7.65064753125000 
 S -5.96483077812500 0.568491365624999 5.70522253125000 
 S -5.90005977812500 4.46680336562500 6.30028753125000 
 S -2.89386877812500 1.57489536562500 3.02864353125000 
 S -2.87336177812500 4.89687436562500 3.44671753125000 
 S -3.76770677812500 1.56922936562500 7.05686753125000 
 S -3.43723777812500 5.17411136562500 7.50405853125000 
