16

 C -3.14977581250000 0.869975193749998 5.58413006250000 
 C -3.07518681250000 5.03705419375000 5.37081506250000 
 C -4.36504081250000 0.784018193749997 4.87588706250000 
 C -4.28744881250000 4.57470319375000 4.70208606250000 
 N -1.98072281250000 0.913290193749997 4.87395206250000 
 N -2.02692481250000 5.08322119375000 4.56203406250000 
 N -4.20933081250000 0.737285193749997 3.52863406250000 
 N -4.14555381250000 4.38905019375000 3.40832806250000 
 N -5.08289681250000 0.584141193749997 7.43292106250000 
 N -4.95747681250000 4.69823419375000 7.24007306250000 
 S -5.76196881250000 0.382724193749998 5.92849106250000 
 S -5.60099581250000 4.14482319375000 5.75635306250000 
 S -2.55555981250000 0.936576193749998 3.30363406250000 
 S -2.55814581250000 4.65898719375000 3.03779106250000 
 S -3.47834581250000 0.926155193749998 7.30224006250000 
 S -3.37019481250000 5.34284219375000 7.08153106250000 
