16

 C -3.37920158750000 1.27155704375000 6.04462151562500 
 C -3.07281458750000 5.02847304375000 5.22097751562500 
 C -4.55186658750000 0.861334043750000 5.23086751562500 
 C -4.28460358750000 4.63054404375000 4.54710551562500 
 N -2.32242158750000 1.50953204375000 5.23519251562500 
 N -1.97336658750000 5.03440204375000 4.42992251562500 
 N -4.33485658750000 0.799535043750000 3.90874051562500 
 N -4.17627858750000 4.59469404375000 3.20158951562500 
 N -5.30252758750000 0.975965043750000 7.64442951562500 
 N -4.88150158750000 4.86333404375000 7.03101651562500 
 S -5.87693658750000 0.413047043750000 6.14619851562500 
 S -5.67971458750000 4.53013804375000 5.62204451562500 
 S -2.75805658750000 1.17121504375000 3.68192251562500 
 S -2.55409658750000 4.71141004375000 2.93235951562500 
 S -3.65712158750000 1.21031004375000 7.73469851562500 
 S -3.24292758750000 5.06664804375000 6.90777951562500 
