16

 C -3.52592369687500 1.35022228749999 5.51003738125000 
 C -3.02474669687500 5.16516828749999 5.41715938125000 
 C -4.51582369687500 0.565754287499995 4.80249438125000 
 C -4.24061869687500 4.79527428749999 4.64182438125000 
 N -2.44520069687500 1.72786128749999 4.80079438125000 
 N -1.92342569687500 5.08607228750000 4.68390238125000 
 N -4.17205569687500 0.321048287499995 3.53563638125000 
 N -4.03305069687500 4.45120428749999 3.40249738125000 
 N -5.32472069687500 0.945797287499994 7.26224038125000 
 N -5.01549369687500 5.21238028749999 7.07561138125000 
 S -5.89302669687500 0.215636287499995 5.86569138125000 
 S -5.70821569687500 4.90778128750000 5.62933738125000 
 S -2.68170669687500 1.01180428750000 3.28776038125000 
 S -2.38712369687500 4.57611928750000 3.17565138125000 
 S -3.87795269687500 1.71771428749999 7.20749238125000 
 S -3.33646969687500 5.52036728750000 7.14764638125000 
