16

 C -2.83831239062500 1.66019513750000 5.73056010000000 
 C -3.05667639062500 5.31118313750000 5.67780910000000 
 C -4.17340739062500 1.56151713750000 5.07123710000000 
 C -4.34419339062500 4.93358113750000 5.16125410000000 
 N -1.82527739062500 1.72520013750000 4.87062210000000 
 N -2.07680739062500 5.32567513750000 4.77948310000000 
 N -4.17417839062500 1.54372713750000 3.74957710000000 
 N -4.41224939062500 4.75027013750000 3.85736610000000 
 N -4.65207939062500 1.66614413750000 7.64166310000000 
 N -4.85365239062500 5.26621713750000 7.61050910000000 
 S -5.48643139062500 1.42885113750000 6.17555510000000 
 S -5.63454039062500 4.78194413750000 6.25789410000000 
 S -2.60605139062500 1.82161913750000 3.37068810000000 
 S -2.85956439062500 5.03242013750000 3.31635510000000 
 S -2.96862539062500 1.83825113750000 7.50342010000000 
 S -3.24170339062500 5.58728613750000 7.40630510000000 
