16

 C -3.29631988125000 1.03397596875000 5.40684875937500 
 C -3.26088588125000 5.17113496875000 5.38185375937500 
 C -4.53689188125000 0.760966968750000 4.70926475937500 
 C -4.34623888125000 4.56130496875000 4.69396875937500 
 N -2.16379488125000 1.12217696875000 4.69845975937500 
 N -2.28699788125000 5.57629496875000 4.54569975937500 
 N -4.37607988125000 0.644390968750000 3.38608675937500 
 N -4.28636788125000 4.53748196875000 3.35419375937500 
 N -5.16902588125000 0.787677968750000 7.27760575937500 
 N -5.10400488125000 4.65320796875000 7.16095275937500 
 S -5.93879288125000 0.470683968750000 5.79674175937500 
 S -5.56099888125000 3.91988496875000 5.70758475937500 
 S -2.69685888125000 0.922859968750000 3.15959675937500 
 S -2.77738288125000 5.21951696875000 3.03392475937500 
 S -3.52818588125000 1.02925796875000 7.16012975937500 
 S -3.62146888125000 5.36955496875000 7.06797675937500 
