16

 C -3.21408286250000 1.47884630000000 5.58056083125000 
 C -3.37013886250000 5.31983730000000 5.65665683125000 
 C -4.48922886250000 1.06959030000000 5.03716983125000 
 C -4.51256086250000 4.66377230000000 5.02491983125000 
 N -2.28297786250000 1.80144730000000 4.70051983125000 
 N -2.50012586250000 5.73300630000000 4.77143183125000 
 N -4.45850386250000 0.999326299999999 3.70587983125000 
 N -4.41574286250000 4.51657030000000 3.73328883125000 
 N -4.97568486250000 1.09963930000000 7.59250383125000 
 N -5.14122586250000 4.74794530000000 7.49134983125000 
 S -5.78999886250000 0.806078299999998 6.18998983125000 
 S -5.87587486250000 4.29212830000000 6.07946883125000 
 S -2.99902886250000 1.48386430000000 3.16209583125000 
 S -2.97613986250000 5.16323430000000 3.30796783125000 
 S -3.33620986250000 1.53315330000000 7.37572883125000 
 S -3.65071986250000 5.40318030000000 7.34339383125000 
