16

 C -2.98015157500000 1.42010546875000 5.35836106250000 
 C -3.40378757500000 5.31881246875000 5.22016206250000 
 C -4.14121657500000 0.949878468750001 4.68782606250000 
 C -4.43553957500000 4.43338646875000 4.74836006250000 
 N -1.86606757500000 1.50931246875000 4.63834906250000 
 N -2.30315757500000 5.33795046875000 4.49178406250000 
 N -3.95391157500000 0.814683468750000 3.39222106250000 
 N -4.25286757500000 3.95777046875000 3.52081606250000 
 N -4.73569657500000 1.27743146875000 7.29211506250000 
 N -5.18497357500000 5.19273346875000 7.02792206250000 
 S -5.44385657500000 0.950051468750001 5.85778306250000 
 S -5.78126557500000 4.30645946875000 5.78802806250000 
 S -2.34630657500000 1.17642646875000 3.04283106250000 
 S -2.71333457500000 4.47377846875000 3.07565206250000 
 S -3.12338257500000 1.67300746875000 7.14196406250000 
 S -3.77248557500000 5.93946846875000 6.84722406250000 
