16

 C -3.36324636250000 1.20714098437500 5.47722629687500 
 C -3.22385836250000 5.00339698437500 5.33572529687500 
 C -4.46328336250000 0.659913984374999 4.78579029687500 
 C -4.43947536250000 4.61172098437500 4.61646229687500 
 N -2.30669536250000 1.36304498437500 4.65006829687500 
 N -2.13087936250000 5.00304698437500 4.60669729687500 
 N -4.37220336250000 0.454061984375000 3.48084729687500 
 N -4.18026936250000 4.31585798437500 3.36895529687500 
 N -5.38396536250000 1.13098498437500 7.12942629687500 
 N -4.98719236250000 5.08277098437500 7.16830229687500 
 S -5.87717736250000 0.391741984375000 5.72358329687500 
 S -5.83211836250000 4.81291498437500 5.76510429687500 
 S -2.81907236250000 0.912209984375000 3.07816229687500 
 S -2.55053436250000 4.56056498437500 3.03299129687500 
 S -3.73054236250000 1.50798498437500 7.16182229687500 
 S -3.30283036250000 5.55716798437500 6.92499129687500 
