16

 C -3.16453206875000 1.22731886875000 5.74010219062500 
 C -3.07733006875000 4.67836986875000 5.43007919062500 
 C -4.31069406875000 0.728700868750000 5.05870819062500 
 C -4.43496206875000 4.61085786875000 4.96488119062500 
 N -2.18467806875000 1.62692486875000 4.94675819062500 
 N -2.10471806875000 4.86350986875000 4.49978719062500 
 N -4.27377206875000 0.742828868750000 3.72202119062500 
 N -4.44562906875000 4.51813286875000 3.63824119062500 
 N -4.80006406875000 0.740244868750000 7.65450219062500 
 N -4.67811306875000 4.68507886875000 7.50687519062500 
 S -5.51744106875000 0.143092868750000 6.24743119062500 
 S -5.61417006875000 4.28218686875000 6.18813419062500 
 S -2.76022206875000 1.32138286875000 3.40088919062500 
 S -2.89949506875000 4.67473086875000 3.05176419062500 
 S -3.18522006875000 1.03733886875000 7.56629019062500 
 S -3.04083406875000 4.82587686875000 7.16490919062500 
