16

 C -3.27987716250000 1.16282390937500 5.97710611250000 
 C -2.97964216250000 4.78610890937500 5.28411011250000 
 C -4.47077616250000 0.748508909375000 5.21038911250000 
 C -4.24015916250000 4.60429190937500 4.62568711250000 
 N -2.18829816250000 1.49721490937500 5.22767111250000 
 N -1.98378716250000 4.88355190937500 4.43111411250000 
 N -4.24739516250000 0.694503909375000 3.87702211250000 
 N -4.17590816250000 4.43239790937500 3.30879211250000 
 N -5.14059316250000 0.608194909375000 7.75547911250000 
 N -4.74509116250000 4.65919490937500 7.16940811250000 
 S -5.88245016250000 0.367811909375000 6.25289211250000 
 S -5.59501716250000 4.54867990937500 5.70269411250000 
 S -2.71501916250000 1.26049190937500 3.66876311250000 
 S -2.59525316250000 4.76183590937500 2.86697211250000 
 S -3.61622216250000 1.28540090937500 7.66894811250000 
 S -3.11911516250000 4.93982090937500 7.04475211250000 
