16

 C -3.02704608437500 1.30322758125000 5.63325068750000 
 C -3.09767708437500 5.16378158125000 5.43995868750000 
 C -4.17801308437500 0.817808581250004 4.94468768750000 
 C -4.18051008437500 4.35065958125000 4.87973668750000 
 N -1.91625308437500 1.39982458125000 4.91689768750000 
 N -2.17750408437500 5.36704858125000 4.54604368750000 
 N -3.96097008437500 0.528065581250004 3.69019968750000 
 N -3.93437508437500 3.81616358125000 3.68906668750000 
 N -4.78669408437500 0.953366581250005 7.50277068750000 
 N -4.87014408437500 5.17880558125000 7.27925968750000 
 S -5.56143008437500 0.572455581250004 6.09459468750000 
 S -5.44569808437500 4.12420558125000 6.09899768750000 
 S -2.43229508437500 1.00023958125000 3.33238768750000 
 S -2.50181108437500 4.48558358125000 3.19445868750000 
 S -3.28841808437500 1.57890658125000 7.31308968750000 
 S -3.35977008437500 5.90001558125000 6.96266968750000 
