16

 C -2.89537148125000 1.76689773125000 5.66958721875000 
 C -3.30789248125000 5.46923973125000 5.33169521875000 
 C -4.19406248125000 1.61394373125000 5.03530421875000 
 C -4.49489548125000 4.91497673125000 4.72805621875000 
 N -1.85985348125000 1.91297273125000 4.84476321875000 
 N -2.35876048125000 5.74171273125000 4.44994721875000 
 N -4.18427648125000 1.56807573125000 3.68693821875000 
 N -4.44794848125000 4.83608773125000 3.39091421875000 
 N -4.64645248125000 1.63058973125000 7.54765921875000 
 N -4.90129448125000 5.07510973125000 7.29713921875000 
 S -5.51725448125000 1.41976273125000 6.15680921875000 
 S -5.65156748125000 4.45743473125000 5.92484021875000 
 S -2.53760248125000 1.79590973125000 3.36629321875000 
 S -2.88222148125000 5.28715973125000 2.99976621875000 
 S -2.99651548125000 1.90414273125000 7.42980021875000 
 S -3.40740248125000 5.65741673125000 7.02235421875000 
