16

 C -3.05266481562500 1.33957773750000 5.28621122812500 
 C -3.22964581562500 5.13975573750000 5.66226722812500 
 C -4.34279781562500 0.945619737500002 4.74155322812500 
 C -4.46712781562500 4.71706273750000 5.07943622812500 
 N -2.10002181562500 1.22062473750000 4.38166222812500 
 N -2.23340981562500 5.33649673750000 4.77146922812500 
 N -4.38740581562500 0.608208737500003 3.48652822812500 
 N -4.39950281562500 4.57837273750000 3.76848522812500 
 N -4.78148881562500 1.56356773750000 7.13093122812500 
 N -4.92237881562500 4.84760773750000 7.63120522812500 
 S -5.70699081562500 1.01819773750000 5.89512922812500 
 S -5.70606181562500 4.52822573750000 6.22662222812500 
 S -2.81833181562500 0.800932737500003 2.87865222812500 
 S -2.81616281562500 4.98316973750000 3.29765422812500 
 S -3.16511281562500 1.73864973750000 6.99286522812500 
 S -3.23235481562500 5.22946773750000 7.34170422812500 
