16

 C -2.94788710625000 1.39547794687500 5.53150627812500 
 C -3.10644510625000 5.23932394687500 5.13467827812500 
 C -4.14458010625000 0.983284946875000 4.86701927812500 
 C -4.34386610625000 4.72280094687500 4.61498227812500 
 N -1.77306910625000 1.36083394687500 4.81443527812500 
 N -2.07476010625000 5.30493394687500 4.31841627812500 
 N -3.93509010625000 0.692125946875000 3.60263127812500 
 N -4.30944010625000 4.52391994687500 3.31304627812500 
 N -4.91873110625000 1.49722594687500 7.21152127812500 
 N -4.71722910625000 4.87838294687500 7.10868027812500 
 S -5.61421110625000 0.862137946874999 5.83904927812500 
 S -5.65924710625000 4.80998194687500 5.74196727812500 
 S -2.28870610625000 0.966520946875000 3.27502027812500 
 S -2.72373910625000 4.91124194687500 2.85464027812500 
 S -3.24756210625000 1.59613494687500 7.24145927812500 
 S -3.14933010625000 5.36306994687500 6.85327527812500 
