16

 C -3.08283682812500 1.47860336562500 5.33035287187500 
 C -3.20157582812500 5.23678136562500 5.68286187187500 
 C -4.23309582812500 0.683061365624997 4.88863287187500 
 C -4.39955182812500 4.69202236562500 5.05755587187500 
 N -2.13438682812500 1.63828536562500 4.40625287187500 
 N -2.14292282812500 5.38954136562500 4.95926587187500 
 N -4.15051782812500 0.164365365624997 3.66442987187500 
 N -4.22426082812500 4.46166836562500 3.76792687187500 
 N -4.97281682812500 1.47710336562500 7.15330687187500 
 N -4.95884982812500 5.01636136562500 7.57778587187500 
 S -5.63909782812500 0.784299365624998 5.82488887187500 
 S -5.82173482812500 4.55099636562500 6.20352387187500 
 S -2.64499882812500 0.697498365624997 3.10348087187500 
 S -2.61943682812500 4.99166036562500 3.41511887187500 
 S -3.41976682812500 2.06091336562500 7.01397287187500 
 S -3.48820882812500 5.73410536562500 7.34300287187500 
