16

 C -2.94398653437500 1.49797980624999 5.77607632187500 
 C -3.21231553437500 4.57505780624999 5.58586832187500 
 C -4.20055853437500 1.19798380624999 5.13828532187500 
 C -4.43680653437500 4.43706380624999 4.89523632187500 
 N -1.97483453437500 1.56880880624999 4.88597132187500 
 N -2.12620753437500 4.66726780624999 4.82418132187500 
 N -4.14452053437500 0.956512806249993 3.85112332187500 
 N -4.29783253437500 4.45368680624999 3.57180632187500 
 N -4.75225153437500 1.52186480624999 7.63596532187500 
 N -4.90638553437500 4.56237180624999 7.41843732187500 
 S -5.54526353437500 1.24492180624999 6.18315632187500 
 S -5.74291653437500 4.30141680624999 6.00562432187500 
 S -2.55905453437500 1.25918780624999 3.36722332187500 
 S -2.67070853437500 4.56867780624999 3.28188132187500 
 S -3.13434853437500 1.67962780624999 7.47228332187500 
 S -3.25845453437500 4.82287480624999 7.24739332187500 
