16

 C -3.22561626250000 1.15545815000000 5.27373399375000 
 C -2.96608826250000 5.07921715000000 5.41030699375000 
 C -4.48600826250000 0.738704149999998 4.67580499375000 
 C -4.06661326250000 4.32347015000000 4.83725199375000 
 N -2.19243426250000 1.22465715000000 4.42423699375000 
 N -1.95720526250000 5.28450215000000 4.57275399375000 
 N -4.36663626250000 0.559672149999998 3.36310499375000 
 N -3.91226926250000 4.15414415000000 3.52126899375000 
 N -5.10827126250000 1.58468715000000 6.98888499375000 
 N -4.83984526250000 5.15216315000000 7.22597599375000 
 S -5.89287826250000 0.965848149999998 5.62053999375000 
 S -5.48524426250000 4.39348615000000 5.86533999375000 
 S -2.80964726250000 0.890291149999999 2.92258099375000 
 S -2.44349126250000 4.76115315000000 3.04635399375000 
 S -3.46576426250000 1.67195515000000 6.92111499375000 
 S -3.22885726250000 5.60922915000000 7.10306299375000 
