16

 C -3.17595700625000 1.43929682187500 5.42004441250000 
 C -3.29256300625000 5.13595282187500 5.39992241250000 
 C -4.31315000625000 0.763075821874998 4.90608441250000 
 C -4.55119500625000 4.69872082187500 4.84985741250000 
 N -2.17043000625000 1.57768782187500 4.55735341250000 
 N -2.35696300625000 5.25602882187500 4.47345341250000 
 N -4.19724900625000 0.357413821874998 3.65452041250000 
 N -4.49760900625000 4.31576982187500 3.58829941250000 
 N -4.90915000625000 1.36885682187500 7.27824841250000 
 N -4.90931100625000 5.07396082187500 7.38229741250000 
 S -5.55351800625000 0.458714821874998 6.02911741250000 
 S -5.83198200625000 4.76518982187500 5.98792041250000 
 S -2.72238100625000 0.794123821874998 3.18077841250000 
 S -2.92744500625000 4.57356382187500 3.07867941250000 
 S -3.34851100625000 1.93714782187500 7.10328441250000 
 S -3.30456000625000 5.54207882187500 7.11680141250000 
