16

 C -3.07300514062500 1.64239368750000 5.45108930625000 
 C -3.51199914062500 5.11536268750000 5.52704330625000 
 C -4.18570714062500 1.03662568750000 4.71337830625000 
 C -4.68332514062500 4.49847368750000 4.96527330625000 
 N -2.01675714062500 1.98600168750000 4.73554430625000 
 N -2.58547514062500 5.54918368750000 4.63634730625000 
 N -3.95440214062500 0.846050687500000 3.41969430625000 
 N -4.55265314062500 4.25453068750000 3.67562730625000 
 N -4.74173014062500 0.865610687500000 7.29421030625000 
 N -5.16879414062500 4.62484768750000 7.48537730625000 
 S -5.53638014062500 0.650560687500001 5.83945330625000 
 S -5.94968914062500 4.08055568750000 6.09622930625000 
 S -2.45883314062500 1.53387068750000 3.17123330625000 
 S -3.09287714062500 4.89861568750000 3.15535030625000 
 S -3.37902714062500 1.85355068750000 7.22594130625000 
 S -3.84058514062500 5.50087568750000 7.21781130625000 
