16

 C -3.02311380937500 1.26126764062500 5.56657449062500 
 C -2.92592380937500 5.15609864062500 5.61732949062500 
 C -4.18510280937500 0.825186640624996 4.85037349062500 
 C -4.09100380937500 4.49621364062500 5.04004049062500 
 N -1.92228080937500 1.36496164062500 4.79764349062500 
 N -1.91726180937500 5.40462264062500 4.79055749062500 
 N -4.00678180937500 0.498727640624996 3.55678449062500 
 N -3.98351480937500 4.32829064062500 3.73662849062500 
 N -4.82562180937500 0.981072640624996 7.29324249062500 
 N -4.69298280937500 4.65442564062500 7.46108049062500 
 S -5.55090980937500 0.642196640624996 5.81264349062500 
 S -5.45956080937500 4.33830164062500 6.02629749062500 
 S -2.45728880937500 0.830050640624996 3.31710749062500 
 S -2.46270680937500 4.88956164062500 3.30694249062500 
 S -3.21122880937500 1.29084364062500 7.27326549062500 
 S -3.17555780937500 5.36193764062500 7.33564549062500 
