16

 C -2.97232354375000 1.75967549687500 5.58907070625000 
 C -3.10493954375000 5.36742649687500 5.61437770625000 
 C -4.10384654375000 1.10051049687500 4.99308670625000 
 C -4.31302054375000 4.86123949687500 5.01572070625000 
 N -1.89817854375000 1.94426049687500 4.81217870625000 
 N -2.09565754375000 5.62099249687500 4.77157270625000 
 N -3.85344554375000 0.626013496875004 3.77315870625000 
 N -4.16213854375000 4.51693349687500 3.72982270625000 
 N -4.77748854375000 1.41043449687500 7.55463670625000 
 N -4.83509854375000 5.32560849687500 7.49384570625000 
 S -5.44389854375000 0.774073496875004 6.17150470625000 
 S -5.69923654375000 4.97382949687500 6.11006770625000 
 S -2.37050554375000 1.13725449687500 3.32001570625000 
 S -2.60647454375000 4.96597449687500 3.32200870625000 
 S -3.27266954375000 2.12200649687500 7.33595370625000 
 S -3.23958154375000 5.66335149687500 7.24535770625000 
