16

 C -3.15651988750000 0.931100700000001 5.59200490000000 
 C -2.95723388750000 5.07736470000000 5.59289090000000 
 C -4.33543288750000 0.547473700000000 4.85119490000000 
 C -4.12726888750000 4.54979170000000 4.94532990000000 
 N -2.06989588750000 1.22525670000000 4.83377190000000 
 N -1.91596488750000 5.26485370000000 4.79570490000000 
 N -4.11824688750000 0.490430700000001 3.52057290000000 
 N -4.02058088750000 4.45930470000000 3.62065790000000 
 N -5.11089888750000 1.05552970000000 7.35681990000000 
 N -4.71125288750000 4.77481370000000 7.45738090000000 
 S -5.82455488750000 0.410833700000000 6.01769790000000 
 S -5.47052688750000 4.27824270000000 6.08412590000000 
 S -2.51206388750000 0.824867700000000 3.25929490000000 
 S -2.38596088750000 4.85941270000000 3.26291490000000 
 S -3.49389588750000 1.27395970000000 7.30870890000000 
 S -3.16065788750000 5.34805170000000 7.28237590000000 
