16

 C -3.42902258125000 1.58369382812500 5.45310105937500 
 C -3.16179358125000 5.72089382812500 5.62092105937500 
 C -4.50874258125000 0.937355828125003 4.83775905937500 
 C -4.15240258125000 4.93814082812500 4.97573005937500 
 N -2.32054358125000 1.62474982812500 4.72025305937500 
 N -2.17637558125000 6.08673282812500 4.79059405937500 
 N -4.27673058125000 0.476699828125002 3.61478305937500 
 N -3.99667358125000 4.78617282812500 3.62563305937500 
 N -5.12074358125000 1.18652982812500 7.28939005937500 
 N -4.85553758125000 5.09367882812500 7.43739305937500 
 S -5.84008158125000 0.783771828125002 5.84442605937500 
 S -5.46922758125000 4.56766382812500 6.02535905937500 
 S -2.69284258125000 1.00923382812500 3.23965705937500 
 S -2.58615258125000 5.49007582812500 3.26910605937500 
 S -3.52621758125000 1.53534282812500 7.19369405937500 
 S -3.32000558125000 5.74063882812500 7.38817205937500 
