16

 C -3.40398823437500 1.40989567187500 5.43059594687500 
 C -3.14362023437500 4.89065667187500 4.97124194687500 
 C -4.45314623437500 0.646560671875003 4.80289094687500 
 C -4.31474923437500 4.44465767187500 4.28978194687500 
 N -2.44350323437500 1.82526067187500 4.58429994687500 
 N -2.11130423437500 5.16084767187500 4.19685694687500 
 N -4.21820123437500 0.315573671875003 3.51988294687500 
 N -4.24859623437500 4.45051567187500 2.94572494687500 
 N -5.16240623437500 0.784434671875003 7.29161394687500 
 N -4.92805123437500 4.60132867187500 6.85107094687500 
 S -5.77976423437500 0.246674671875003 5.85112194687500 
 S -5.53455223437500 3.91912867187500 5.45931694687500 
 S -2.89460623437500 1.16758367187500 3.08665794687500 
 S -2.66182823437500 4.90582367187500 2.66578794687500 
 S -3.59012023437500 1.43588667187500 7.20208694687500 
 S -3.38686723437500 5.20209567187500 6.66487494687500 
