16

 C -3.04254476875000 1.45771995000000 5.46647862500000 
 C -3.31411376875000 5.34780495000000 5.48427162500000 
 C -4.22348276875000 0.903871949999999 4.88069162500000 
 C -4.45369476875000 4.82280095000000 4.76498962500000 
 N -2.04570376875000 1.66866795000000 4.59170762500000 
 N -2.27488176875000 5.54018495000000 4.65962962500000 
 N -4.23779776875000 0.816175949999999 3.55840562500000 
 N -4.29299476875000 4.66978595000000 3.45889262500000 
 N -4.73679876875000 1.21456795000000 7.35646462500000 
 N -5.13824776875000 4.68421495000000 7.21144762500000 
 S -5.53811176875000 0.682466949999999 6.02767462500000 
 S -5.85028576875000 4.43497895000000 5.72880362500000 
 S -2.73674176875000 1.23898795000000 3.13765162500000 
 S -2.79226976875000 5.17502395000000 3.09681862500000 
 S -3.13306076875000 1.61686495000000 7.17060462500000 
 S -3.53021176875000 5.23310695000000 7.21886862500000 
