16

 C -3.79425810937500 1.17369406250000 5.67789878750000 
 C -3.13972010937500 4.97365106250000 5.33859078750000 
 C -4.85032710937500 0.641409062499998 4.89976878750000 
 C -4.37691310937500 4.49134606250000 4.78432078750000 
 N -2.71519810937500 1.41886206250000 4.98169278750000 
 N -2.14712710937500 5.04319206250000 4.47491678750000 
 N -4.63592010937500 0.513496062499997 3.58785378750000 
 N -4.30863110937500 4.17120006250000 3.47380978750000 
 N -5.62225810937500 0.670412062499997 7.38378678750000 
 N -4.73736210937500 5.04426906250000 7.31221178750000 
 S -6.23777610937500 0.201423062499997 5.91697278750000 
 S -5.54430210937500 4.25075206250000 6.05975978750000 
 S -3.11304910937500 1.19920006250000 3.41245078750000 
 S -2.69633210937500 4.57239306250000 3.04171378750000 
 S -4.03281210937500 1.24974406250000 7.37144978750000 
 S -3.16815410937500 5.49075306250000 6.94452678750000 
