16

 C -2.93503867812500 1.26944023437500 5.44188993125000 
 C -2.90687867812500 5.09615223437500 5.68536093125000 
 C -4.09737367812500 0.709438234375000 4.72471593125000 
 C -4.16830767812500 4.68335723437500 5.16836893125000 
 N -1.88248967812500 1.35163223437500 4.64234093125000 
 N -1.90217867812500 5.15974323437500 4.81562793125000 
 N -3.86363867812500 0.576410234374999 3.44378893125000 
 N -4.14541667812500 4.54765423437500 3.84117193125000 
 N -4.81910567812500 0.935301234374999 7.21464193125000 
 N -4.46842467812500 4.81556323437500 7.68476493125000 
 S -5.43680267812500 0.421374234375000 5.74675093125000 
 S -5.29470367812500 4.25521723437500 6.34451993125000 
 S -2.27408867812500 0.895233234375000 3.07858793125000 
 S -2.65339567812500 4.85075723437500 3.36335193125000 
 S -3.27130167812500 1.56212523437500 7.09806893125000 
 S -2.92755367812500 5.36973423437500 7.36540593125000 
