16

 C -3.04904130000000 1.73280194687500 5.40157512812500 
 C -3.54927030000000 5.00927894687500 5.17368512812500 
 C -4.13743330000000 1.03661694687500 4.72294812812500 
 C -4.57097730000000 4.27430594687500 4.54027212812500 
 N -1.97516830000000 1.77679194687500 4.64451512812500 
 N -2.47699130000000 5.16653094687500 4.39241312812500 
 N -3.82694130000000 0.540622946875001 3.54101212812500 
 N -4.36998130000000 3.85245294687500 3.29608712812500 
 N -4.72871630000000 1.26919994687500 7.29221912812500 
 N -5.45875530000000 5.03683494687500 6.92757612812500 
 S -5.48617130000000 0.723560946875001 5.91056112812500 
 S -5.91950530000000 4.10204494687500 5.56682912812500 
 S -2.26525330000000 1.12672794687500 3.09826812812500 
 S -2.87902030000000 4.44103394687500 2.90101612812500 
 S -3.32849830000000 2.18131694687500 7.02654412812500 
 S -3.88061530000000 5.55181994687500 6.79685912812500 
