16

 C -3.20015279687500 1.39597669375000 5.35498102500000 
 C -2.91854279687500 5.29475969375000 5.68973502500000 
 C -4.35033979687501 0.871446693749999 4.69805402500000 
 C -4.24816879687500 5.08367269375000 5.18503302500000 
 N -2.16120679687500 1.64419869375000 4.61164602500000 
 N -2.00284179687500 5.31711469375000 4.73576502500000 
 N -4.21218279687500 0.784780693749999 3.38925202500000 
 N -4.27757079687500 4.91556569375000 3.85061002500000 
 N -4.89365779687500 0.772589693749998 7.25461302500000 
 N -4.52473779687501 4.89989169375000 7.58450202500000 
 S -5.60338479687500 0.243000693749998 5.80733302500000 
 S -5.52857679687500 4.84041069375000 6.26073302500000 
 S -2.65537679687500 1.45221769375000 3.02428502500000 
 S -2.78609079687500 5.09857469375000 3.23467202500000 
 S -3.39841979687500 1.58543769375000 7.02523902500000 
 S -2.98194679687500 5.47427869375000 7.48044302500000 
