16

 C -3.00911850000000 1.90215240000000 5.42433568750000 
 C -3.66690150000000 5.24583840000000 5.52167568750000 
 C -4.03695750000000 1.15521640000000 4.82066768750000 
 C -4.70347350000000 4.50267140000000 4.89413468750000 
 N -1.96018450000000 2.19000940000000 4.62709768750000 
 N -2.63983350000000 5.54063740000000 4.74245268750000 
 N -3.85769950000000 0.932297400000000 3.51988968750000 
 N -4.47268550000000 4.23226240000000 3.61043268750000 
 N -4.63856650000000 1.00683840000000 7.25097668750000 
 N -5.26454850000000 4.73512240000000 7.40819768750000 
 S -5.27706850000000 0.484093400000001 5.80494468750000 
 S -5.86731850000000 3.95481440000000 6.02285768750000 
 S -2.36413650000000 1.47161340000000 3.15909268750000 
 S -3.05093450000000 4.98832640000000 3.23006168750000 
 S -3.20459550000000 1.85907340000000 7.15249368750000 
 S -3.76822950000000 5.44859040000000 7.24645168750000 
