16

 C -2.99089725625000 1.23807120312500 5.52600780312500 
 C -2.98498525625000 5.14245120312500 5.66101980312500 
 C -4.21617625625000 0.904936203125001 4.84645880312500 
 C -4.21590425625000 4.80299620312500 4.97552080312500 
 N -1.89050625625000 1.30764820312500 4.76180580312500 
 N -1.98910725625000 5.24892720312500 4.81286280312500 
 N -4.06869125625000 0.759319203125002 3.50161280312500 
 N -4.08755125625000 4.58255720312500 3.68873580312500 
 N -4.82660325625000 1.30402920312500 7.28474680312500 
 N -4.86100425625000 5.15643520312500 7.43584880312500 
 S -5.59645425625000 1.02678520312500 5.83173080312500 
 S -5.60333125625000 4.80972420312500 5.96544180312500 
 S -2.39203225625000 0.864327203125002 3.20471580312500 
 S -2.48555825625000 4.93604120312500 3.26535480312500 
 S -3.21360225625000 1.64176920312500 7.21560980312500 
 S -3.19331425625000 5.45537820312500 7.40455280312500 
