16

 C -2.86691968750000 1.78944548125000 5.66224867187500 
 C -3.16346568750000 5.26100748125000 5.67616567187500 
 C -4.17997168750000 1.60821348125000 5.07045667187500 
 C -4.43288668750000 4.90185348125000 5.11265467187500 
 N -1.87877568750000 1.77337948125000 4.79392567187500 
 N -2.15285968750000 5.32723048125000 4.84230167187500 
 N -4.08755568750000 1.65803948125000 3.75413167187500 
 N -4.35951968750000 4.78570148125000 3.79111467187500 
 N -4.57699068750000 1.55498348125000 7.63495867187500 
 N -4.84633568750000 5.23480448125000 7.64922367187500 
 S -5.44969368750000 1.43719348125000 6.27072967187500 
 S -5.69058468750000 4.72694848125000 6.29593367187500 
 S -2.50368168750000 1.67466148125000 3.24991767187500 
 S -2.80252868750000 4.95215748125000 3.31815867187500 
 S -2.97990268750000 1.88960848125000 7.40028667187500 
 S -3.20220468750000 5.60446648125000 7.39709067187500 
