16

 C -3.45817877500000 1.35598266562500 5.38882870625000 
 C -3.28172977500000 5.01698366562500 5.77106870625000 
 C -4.61192277500000 0.968873665625002 4.63264470625000 
 C -4.56334277500000 4.74620066562500 5.14454470625000 
 N -2.41827277500000 1.60864566562500 4.62771370625000 
 N -2.25672977500000 5.19494066562500 4.98920670625000 
 N -4.44160177500000 0.921908665625002 3.30850970625000 
 N -4.40726177500000 4.63051466562500 3.84150170625000 
 N -5.28664477500000 0.852650665625002 7.19679070625000 
 N -5.04783777500000 4.94931666562500 7.65712070625000 
 S -5.96768477500000 0.560953665625002 5.70561670625000 
 S -5.89968677500000 4.45980466562500 6.30449870625000 
 S -2.89187977500000 1.56975066562500 3.02971270625000 
 S -2.87385277500000 4.90312566562500 3.44640970625000 
 S -3.76568277500000 1.56258866562500 7.05723870625000 
 S -3.43830977500000 5.17515966562500 7.50202270625000 
