16

 C -2.96951485312500 1.03225031250000 5.82257166250000 
 C -3.21924885312500 4.94339831250000 5.56487066250000 
 C -4.20670785312500 0.668619312500002 5.19037466250000 
 C -4.36770885312500 4.43867131250000 4.90454166250000 
 N -1.95004585312500 1.16198731250000 4.97409566250000 
 N -2.28626285312500 5.39176931250000 4.73121666250000 
 N -4.09929885312500 0.438582312500002 3.89524266250000 
 N -4.24068985312500 4.35244631250000 3.56464066250000 
 N -4.91218685312500 0.988266312500002 7.62113066250000 
 N -4.96620385312500 4.61557131250000 7.40252466250000 
 S -5.59888685312500 0.512802312500002 6.20119866250000 
 S -5.62217385312500 4.01938431250000 6.01367166250000 
 S -2.56836885312500 0.900419312500002 3.43660766250000 
 S -2.77097585312500 5.02561531250000 3.17457966250000 
 S -3.25072985312500 1.29240131250000 7.55945066250000 
 S -3.46397685312500 5.32410031250000 7.28247166250000 
