16

 C -3.12888591562500 1.11221405625000 5.73464777812500 
 C -3.07023991562500 4.74806005625000 5.47174777812500 
 C -4.33614891562500 0.697514056249999 5.07363377812500 
 C -4.41102291562500 4.51718505625000 4.96085477812500 
 N -2.19251791562500 1.61289305625000 4.89839977812500 
 N -2.13896891562500 4.87854205625000 4.53009677812500 
 N -4.26676591562500 0.719372056249999 3.71125977812500 
 N -4.50303791562500 4.52760505625000 3.62882677812500 
 N -4.76235791562500 0.718527056249999 7.64847877812500 
 N -4.72023291562500 4.68006405625000 7.52937977812500 
 S -5.48600891562500 0.207328056249999 6.24193077812500 
 S -5.59572491562500 4.27643705625000 6.21231177812500 
 S -2.75896091562500 1.34971405625000 3.37708077812500 
 S -2.96058591562500 4.68632405625000 3.10942677812500 
 S -3.14222791562500 1.03293805625000 7.47538277812500 
 S -3.08230191562500 4.85815805625000 7.19450777812500 
