16

 C -3.13435362187500 1.32072995000000 5.36727820937500 
 C -3.10843562187500 4.89180895000000 5.51580020937500 
 C -4.32824762187500 0.555623950000004 4.80914320937500 
 C -4.40331562187500 4.61659595000000 4.95578120937500 
 N -2.22817662187500 1.63165995000000 4.46001820937500 
 N -2.16140862187500 4.97281095000000 4.57399020937500 
 N -4.16985362187500 0.280405950000004 3.51676720937500 
 N -4.48268762187500 4.56241795000000 3.62042420937500 
 N -4.89114662187500 1.18000295000000 7.27907320937500 
 N -4.77543862187500 4.80835395000000 7.50821020937500 
 S -5.54598462187500 0.308777950000004 6.02629420937500 
 S -5.67118962187500 4.56044395000000 6.12026820937500 
 S -2.70497262187500 0.935723950000004 3.03878820937500 
 S -2.92062162187500 4.72198795000000 3.09809220937500 
 S -3.37416662187500 1.83456195000000 6.99618820937500 
 S -3.13836562187500 5.28372295000000 7.26724020937500 
