16

 C -3.22568559062500 1.53393998750000 5.48887190625000 
 C -3.16080759062500 5.20345198750000 5.89123990625000 
 C -4.44727759062500 1.11060098750000 4.81079690625000 
 C -4.43682259062500 4.98862198750000 5.30107290625000 
 N -2.21990759062500 1.80120098750000 4.67283890625000 
 N -2.07206259062500 5.28830298750000 5.10081190625000 
 N -4.38250259062500 1.07485598750000 3.48640490625000 
 N -4.34577759062500 4.82689398750000 3.94177490625000 
 N -5.03989059062500 0.990337987500001 7.32571890625000 
 N -4.79708859062500 5.08785798750000 7.81522990625000 
 S -5.74909459062500 0.710794987500000 5.84207190625000 
 S -5.74319159062500 5.00831098750000 6.51915190625000 
 S -2.80521859062500 1.45437498750000 3.06899890625000 
 S -2.74911659062500 5.05556098750000 3.57150190625000 
 S -3.43746159062500 1.52183298750000 7.23057090625000 
 S -3.16462359062500 5.38558098750000 7.60838090625000 
