16

 C -2.83636918750000 1.28309583750000 5.78208759375000 
 C -2.99822718750000 4.64337683750000 5.53424359375000 
 C -4.08759718750000 1.13595483750000 5.08142759375000 
 C -4.22566018750000 4.37962283750000 4.73906359375000 
 N -1.78618618750000 1.15229383750000 4.90974359375000 
 N -1.84708918750000 4.67461483750000 4.83488259375000 
 N -4.00414218750000 1.01774583750000 3.77053059375000 
 N -3.93285918750000 4.21967583750000 3.46878759375000 
 N -4.75866518750000 1.55844183750000 7.49201159375000 
 N -5.00633618750000 4.86625083750000 7.18116059375000 
 S -5.53840218750000 1.29631383750000 6.05259159375000 
 S -5.71435318750000 4.34610683750000 5.80080659375000 
 S -2.47298918750000 1.04620883750000 3.40841359375000 
 S -2.30611518750000 4.39433483750000 3.25137659375000 
 S -3.10021118750000 1.59128883750000 7.48842859375000 
 S -3.32658618750000 5.10637383750000 7.15846259375000 
