16

 C -3.01884324375000 1.39322731875000 5.44937163750000 
 C -3.32166424375000 5.48912831875001 5.36317163750000 
 C -4.28601524375000 1.07071531875000 4.84441763750000 
 C -4.27349124375000 4.58620831875001 4.78520263750000 
 N -2.00864424375000 1.32199231875000 4.57597563750000 
 N -2.26772724375000 5.70574531875000 4.59835163750000 
 N -4.23007024375000 0.714635318750005 3.55883163750000 
 N -3.98654324375000 4.20578631875000 3.54708563750000 
 N -4.70349424375000 0.929673318750004 7.34711563750000 
 N -5.15369324375000 5.38955431875000 7.11940563750000 
 S -5.55220324375000 0.921146318750004 5.89727063750000 
 S -5.63831224375000 4.44214231875000 5.88511263750000 
 S -2.63022824375000 1.00367531875000 3.06367163750000 
 S -2.55240824375000 4.87463931875000 3.18217863750000 
 S -3.09547124375000 1.34586631875000 7.19383363750000 
 S -3.55138824375000 5.91384031875000 7.03923463750000 
