16

 C -2.96849887812500 1.28111072500000 5.68474156250000 
 C -2.87634787812500 4.80438272500000 5.48906356250000 
 C -4.26206187812500 1.13126272500000 5.02622656250000 
 C -4.08031987812500 4.54563772500000 4.76218856250000 
 N -1.94571387812500 1.07529272500000 4.91387256250000 
 N -1.80724687812500 4.71523472500000 4.69976356250000 
 N -4.15072487812500 0.904542725000004 3.68600456250000 
 N -4.03734187812501 4.30577572500000 3.41366456250000 
 N -4.60533587812500 1.37059472500000 7.69901956250000 
 N -4.85772187812500 4.72256672500000 7.13623056250000 
 S -5.50337587812500 1.48693772500000 6.30258356250000 
 S -5.49902587812501 4.43885572500001 5.72559856250000 
 S -2.50303187812500 0.767972725000003 3.41282656250000 
 S -2.43394487812500 4.38862472500001 3.17432456250000 
 S -2.91400887812500 1.61578872500001 7.36168356250000 
 S -3.21592487812500 5.08446672500000 7.22379356250000 
