16

 C -3.15209964687500 0.886204581250000 5.58868925937500 
 C -3.11689464687500 4.95469158125000 5.35391425937500 
 C -4.37991964687500 0.822274581250000 4.87313325937500 
 C -4.32624764687500 4.56821158125000 4.68020125937500 
 N -1.97831064687500 0.913328581250000 4.84701425937500 
 N -2.05209964687500 5.06372458125000 4.53887725937500 
 N -4.19466064687500 0.744920581250001 3.54653725937500 
 N -4.17085964687500 4.34977258125000 3.38191025937500 
 N -5.07105264687500 0.587535581250000 7.42327625937500 
 N -4.93593064687500 4.69467958125000 7.21583725937500 
 S -5.76977664687500 0.387347581250000 5.93820225937500 
 S -5.62123164687500 4.14021158125000 5.75997825937500 
 S -2.56224564687500 0.939883581250000 3.31283925937500 
 S -2.57685564687500 4.67437958125000 3.04373525937500 
 S -3.44543064687500 0.918456581250000 7.28923725937500 
 S -3.39920664687500 5.36274758125000 7.06398225937500 
