16

 C -3.07028435312500 1.46912457500000 5.63673599375000 
 C -3.32199835312500 5.08266057500000 5.28358899375000 
 C -4.28393435312500 1.04511157500000 4.85832299375000 
 C -4.46755435312500 4.50834257500000 4.61837799375000 
 N -2.00074635312500 1.62365557500000 4.85127299375000 
 N -2.19837435312500 5.13312457500000 4.56731299375000 
 N -4.06546335312500 0.777830574999999 3.56335699375000 
 N -4.17724135312500 4.03298257500000 3.41013799375000 
 N -5.08370735312500 1.23212457500000 7.35428399375000 
 N -5.25514035312500 5.27083457500000 6.95475699375000 
 S -5.75368335312500 1.01950257500000 5.83439799375000 
 S -5.91231335312500 4.60164557500000 5.60478799375000 
 S -2.53655035312500 1.16264957500000 3.32978699375000 
 S -2.62121935312500 4.49036057500000 3.10557799375000 
 S -3.42501735312500 1.75943657500000 7.35763199375000 
 S -3.62030235312500 5.45792257500000 6.99354399375000 
