16

 C -3.05846273750000 1.31439563125001 5.54459151562500 
 C -3.39502773750000 5.04747863125001 5.47244251562500 
 C -4.35950773750000 0.987415631250006 4.97118451562500 
 C -4.56109973750000 4.52812863125001 4.78264951562500 
 N -2.06418873750000 1.32955063125001 4.62724351562500 
 N -2.39505873750000 5.40336663125001 4.65027051562500 
 N -4.38950473750000 0.761325631250007 3.63182651562500 
 N -4.50241873750000 4.38192063125001 3.46652351562500 
 N -4.85898373750000 1.16570163125001 7.36911251562500 
 N -5.02073973750000 4.59430263125001 7.40549651562500 
 S -5.74122473750000 0.912572631250007 6.02296251562500 
 S -5.86913073750000 4.15524863125001 5.92470451562500 
 S -2.84475573750000 1.10918663125001 3.09740251562500 
 S -2.96323973750000 5.00063463125001 3.10312951562500 
 S -3.30118173750000 1.61762363125001 7.26083451562500 
 S -3.49885073750000 5.18539363125001 7.19556651562500 
