16

 C -3.23318300312500 1.22172240000000 5.29726037812500 
 C -2.86970400312500 5.08946340000000 5.44494737812500 
 C -4.47232700312500 0.861747399999998 4.66322637812500 
 C -4.07375700312500 4.57077940000000 4.77689037812500 
 N -2.20143800312500 1.21156840000000 4.46310537812500 
 N -1.91949600312500 5.37546040000000 4.57149637812500 
 N -4.41638400312500 0.537224399999998 3.36643237812500 
 N -3.97863600312500 4.26451440000000 3.46674537812500 
 N -5.06809700312500 1.64609740000000 6.98888637812500 
 N -4.79446200312500 5.09366740000000 7.17612537812500 
 S -5.83525400312500 0.960761399999998 5.67941437812500 
 S -5.41466300312500 4.35917840000000 5.84714737812500 
 S -2.83342200312500 0.804367399999998 2.96670037812500 
 S -2.44973200312500 4.83919340000000 3.09839137812500 
 S -3.36989700312500 1.61857040000000 6.99923737812500 
 S -3.19916600312500 5.57648640000000 7.05823737812500 
