16

 C -3.09745135625000 1.47323010312500 5.39539044062500 
 C -3.38381535625000 5.27311810312500 5.25720444062500 
 C -4.25678535625000 0.763348103125003 4.89393144062500 
 C -4.37497835625000 4.41976410312500 4.63405744062500 
 N -2.15102835625000 1.71926010312500 4.48879844062500 
 N -2.45447935625000 5.67407810312500 4.40222744062500 
 N -4.19546435625000 0.407768103125004 3.60130244062500 
 N -4.16285335625000 4.07073910312500 3.37237344062500 
 N -4.77744135625000 1.30044010312500 7.40420844062500 
 N -5.19541435625000 4.92628910312500 7.02494144062500 
 S -5.54208435625000 0.592689103125003 6.15337044062500 
 S -5.70004835625000 4.11248210312500 5.67638744062500 
 S -2.79413135625000 1.00363010312500 3.05958444062500 
 S -2.75351235625000 4.86768710312500 2.98912344062500 
 S -3.23692735625000 1.78901410312500 7.18775544062500 
 S -3.67139335625000 5.63147010312500 6.91125144062500 
