16

 C -2.92522353750000 1.45300909062500 5.36902518125000 
 C -3.28017553750000 5.22957309062500 5.46942718125000 
 C -4.24002453750000 1.05548809062500 4.81446718125000 
 C -4.39477653750000 4.70205509062500 4.73620118125000 
 N -2.03989953750000 1.61947409062500 4.37465418125000 
 N -2.26912853750000 5.56250609062500 4.69847218125000 
 N -4.24961353750000 0.880506090625001 3.47434418125000 
 N -4.22773853750000 4.64259209062500 3.41672918125000 
 N -4.57968753750000 1.16054209062500 7.38328118125000 
 N -5.07550853750000 4.70169209062500 7.22388118125000 
 S -5.44812053750000 0.764203090625001 6.00956118125000 
 S -5.77363753750000 4.35252409062500 5.78344018125000 
 S -2.73139053750000 1.25801509062500 2.92402518125000 
 S -2.64132053750000 5.15030609062500 3.16714418125000 
 S -2.99381053750000 1.60326209062500 7.12382418125000 
 S -3.52368853750000 5.20874609062500 7.18205318125000 
