16

 C -2.58576131250000 1.58045792187500 5.39452438437500 
 C -3.37847231250000 5.01535292187500 5.58888538437500 
 C -3.74877731250000 0.841239921874998 4.84172138437500 
 C -4.54789731250000 4.49702992187500 4.88774438437500 
 N -1.81104731250000 2.07907592187500 4.45763938437500 
 N -2.38899931250000 5.40611292187500 4.78045538437500 
 N -3.70913731250000 0.752162921874997 3.53868838437500 
 N -4.38339331250000 4.37242592187500 3.57754438437500 
 N -4.24937931250000 1.04860792187500 7.31030438437500 
 N -5.12685531250000 4.41469892187500 7.39056738437500 
 S -5.03653431250000 0.531984921874998 5.95348838437500 
 S -5.78827831250000 4.03253492187500 5.93684438437500 
 S -2.42149731250000 1.62894592187500 2.96959638437500 
 S -2.93354531250000 5.13871292187500 3.26108038437500 
 S -2.90694531250000 2.01255792187500 7.02192938437500 
 S -3.61493131250000 5.16886792187500 7.34346938437500 
