16

 C -3.25582743750000 1.39199784062500 5.66682610312500 
 C -3.27449743750000 5.53078984062500 5.50832310312500 
 C -4.50838243750000 1.17996684062500 5.07509010312500 
 C -4.37797443750000 4.88547684062500 4.84087010312500 
 N -2.18643643750000 1.33708884062500 4.85384410312500 
 N -2.18103943750000 5.63348084062500 4.75555910312500 
 N -4.44141343750000 1.09773884062500 3.76010910312500 
 N -4.19395443750000 4.62011384062500 3.54884010312500 
 N -4.98296343750000 1.21825784062500 7.57681010312500 
 N -4.90698843750000 4.99356284062500 7.36984510312500 
 S -5.88405543750000 1.04174784062500 6.16586110312500 
 S -5.68152643750000 4.53722384062500 5.99096110312500 
 S -2.81219243750000 1.04705384062500 3.39558410312500 
 S -2.62100743750000 5.07828484062500 3.24706110312500 
 S -3.29066143750000 1.40482784062500 7.40414810312500 
 S -3.36170643750000 5.40386384062500 7.24088410312500 
