16

 C -3.05605556562500 1.05656767500000 5.44339852187500 
 C -3.13175056562500 4.88374967500000 5.48657252187500 
 C -4.29679756562500 0.684929675000000 4.72717052187500 
 C -4.40238356562500 4.63284967500000 4.87237652187500 
 N -1.96225256562500 1.13823467500000 4.69198852187500 
 N -2.12422456562500 4.92752467500000 4.63753252187500 
 N -4.12699856562500 0.541725675000000 3.41180152187500 
 N -4.34442256562500 4.38558667500000 3.60629252187500 
 N -4.87074756562500 0.683226675000000 7.22237352187500 
 N -4.81744356562500 5.04317567500000 7.38724252187500 
 S -5.65232256562500 0.356317675000001 5.79964252187500 
 S -5.73901256562500 5.01601667500000 5.98866452187500 
 S -2.50321356562500 0.936475675000001 3.14991852187500 
 S -2.67879556562500 4.55139467500000 3.14028952187500 
 S -3.31432456562500 1.18489767500000 7.15735452187500 
 S -3.16610556562500 5.01771567500000 7.22094752187500 
