16

 C -3.00343612187500 1.55069403437500 5.61413862187500 
 C -2.99671712187500 5.22036103437500 5.69436462187500 
 C -4.30939512187500 1.32201003437500 5.01618062187500 
 C -4.23634312187500 4.92261403437500 5.02152862187500 
 N -2.08697312187500 1.84054303437500 4.69910962187500 
 N -2.01160512187500 5.52134303437500 4.84910362187500 
 N -4.33945912187500 1.26308803437500 3.67430062187500 
 N -4.16780312187500 4.82698303437500 3.69235962187500 
 N -4.73264812187500 1.52659003437500 7.49127762187500 
 N -4.88737812187500 4.88710803437500 7.45638462187500 
 S -5.65465012187500 1.28896203437500 6.16203262187500 
 S -5.61919012187500 4.57248603437500 5.99370262187500 
 S -2.83527012187500 1.64144603437500 3.23038562187500 
 S -2.61628212187500 5.17657403437500 3.29331562187500 
 S -3.07974512187500 1.77880803437500 7.35537362187500 
 S -3.29440312187500 5.26431803437500 7.39107262187500 
