16

 C -3.29164521562500 1.19416567187500 5.21978791562500 
 C -2.98563321562500 5.04826867187500 5.39766091562500 
 C -4.52285321562500 0.781940671874997 4.53292891562500 
 C -4.19710421562500 4.47955767187500 4.81876691562500 
 N -2.20030321562500 1.32664967187500 4.45311491562500 
 N -1.94821121562500 5.27408067187500 4.59883291562500 
 N -4.33363121562500 0.558521671874997 3.21426791562500 
 N -3.94387121562500 3.96022967187500 3.62019691562500 
 N -5.16333321562500 1.36035867187500 7.01037991562500 
 N -4.85641021562500 5.08888267187500 7.20943791562500 
 S -5.91707721562500 0.883020671874997 5.62809091562500 
 S -5.54917621562500 4.44299967187500 5.87006291562500 
 S -2.72730621562500 0.922514671874997 2.92139891562500 
 S -2.44348021562500 4.57142267187500 3.17311391562500 
 S -3.52827521562500 1.72606767187500 6.86211891562500 
 S -3.26455821562500 5.55542667187500 7.03381191562500 
