16

 C -3.26149614687500 1.67401817812500 5.75495892187500 
 C -3.15327514687500 5.31515517812500 5.85830992187500 
 C -4.40689214687500 1.16159817812500 5.09732592187500 
 C -4.34912914687500 4.78891817812500 5.21394092187500 
 N -2.17597414687500 1.82101717812500 4.99117392187500 
 N -2.08353814687500 5.45812517812500 5.07514392187500 
 N -4.18872514687500 0.928638178124996 3.78922892187500 
 N -4.19315214687500 4.50896617812500 3.88758992187500 
 N -5.05683414687500 1.18678117812500 7.62954992187500 
 N -4.73877014687500 4.85291017812500 7.72645692187500 
 S -5.70933714687500 0.711440178124996 6.13203692187500 
 S -5.53132014687500 4.38353817812500 6.41026292187500 
 S -2.66220414687500 1.35761517812500 3.46890292187500 
 S -2.61703314687500 4.97989817812500 3.59676892187500 
 S -3.55941714687500 1.89763717812500 7.47184992187500 
 S -3.26954214687500 5.59819317812500 7.54690692187500 
