16

 C -3.08025480312500 1.47577221875000 5.66720112500000 
 C -3.37793380312500 4.86615621875000 5.59197312500000 
 C -4.26778580312500 1.14983721875000 4.90677212500000 
 C -4.48306080312500 4.45700921875000 4.82741412500000 
 N -2.00520580312500 1.49921121875000 4.86816812500000 
 N -2.27869080312500 5.02738921875000 4.90679912500000 
 N -4.06939980312500 0.924800218750000 3.62797012500000 
 N -4.23947780312500 4.39271521875000 3.53087312500000 
 N -5.07901980312500 1.19188621875000 7.38360612500000 
 N -5.29535780312500 4.81954421875000 7.17841712500000 
 S -5.76721580312500 0.887243218750000 5.91498312500000 
 S -5.91656380312500 4.13914821875000 5.83243412500000 
 S -2.52762480312500 1.28366721875000 3.30533112500000 
 S -2.64058480312500 4.75556921875000 3.34100112500000 
 S -3.44948080312500 1.58453121875000 7.37142912500000 
 S -3.59672980312500 5.05611721875000 7.25143312500000 
