16

 C -3.54013003750000 1.79036808437500 5.32299684687500 
 C -3.20021503750000 4.94894908437500 5.71885384687500 
 C -4.63682603750000 1.18291308437500 4.65061784687500 
 C -4.47266203750000 4.68391808437500 5.10854684687500 
 N -2.49713403750000 2.19519308437500 4.59792284687500 
 N -2.20032703750000 5.03505808437500 4.89129484687500 
 N -4.37021403750000 0.997835084375001 3.38263484687500 
 N -4.38655703750000 4.45191308437500 3.82309784687500 
 N -5.33889703750000 1.03334108437500 7.07044984687500 
 N -5.05072803750000 4.98034508437500 7.58263384687500 
 S -6.03152603750000 0.722494084375001 5.57009284687500 
 S -5.88559403750000 4.72420708437500 6.19350784687500 
 S -2.85669103750000 1.53783908437500 3.04296284687500 
 S -2.84817003750000 4.77984308437500 3.36168684687500 
 S -3.78181603750000 1.76606708437500 7.04962884687500 
 S -3.43191503750000 5.16465008437500 7.46376884687500 
