16

 C -3.04191955625000 1.29178357812500 5.72740251250000 
 C -3.16106555625000 4.99473357812500 5.45097751250001 
 C -4.12017555625000 0.578461578124998 5.10881751250000 
 C -4.36616555625000 4.53173757812500 4.84333551250000 
 N -2.03331055625000 1.44977157812500 4.87256551250000 
 N -2.14758955625000 5.12244557812500 4.60591951250001 
 N -3.95376755625000 0.255954578124998 3.84308951250000 
 N -4.24139555625000 4.20864457812500 3.57372951250000 
 N -4.81035955625000 0.865610578124998 7.51066851250000 
 N -4.93583955625000 4.99480157812500 7.29797351250000 
 S -5.47316355625000 0.315099578124998 6.11600951250001 
 S -5.67997455625000 4.27758657812500 5.97386451250000 
 S -2.44548955625000 0.820815578124998 3.38800851250000 
 S -2.68489355625000 4.55711357812500 3.13437051250000 
 S -3.27090555625000 1.54398657812500 7.46193451250000 
 S -3.23896055625000 5.15374557812500 7.21771551250001 
