16

 C -3.10997767812500 0.964975928125002 5.46049217500000 
 C -3.04234267812500 4.93814292812500 5.52765717500000 
 C -4.27048467812500 0.618371928125002 4.74256917500000 
 C -4.34725467812500 4.70803892812500 4.89241117500000 
 N -1.99321167812500 1.07953492812500 4.76389517500000 
 N -2.04563967812500 4.96699192812500 4.65859117500000 
 N -4.00946567812500 0.574208928125001 3.42173617500000 
 N -4.26490367812500 4.43527692812500 3.58941917500000 
 N -4.94809967812500 0.817681928125001 7.23696517500000 
 N -4.87568467812500 5.04095492812500 7.37158217500000 
 S -5.65846967812500 0.407337928125002 5.77966617500000 
 S -5.70142767812500 4.97374592812500 5.94471117500000 
 S -2.43176067812500 0.883797928125001 3.17088517500000 
 S -2.72274767812500 4.59706092812500 3.11725717500000 
 S -3.31837567812500 1.27256492812500 7.11609017500000 
 S -3.17661667812500 5.16277292812500 7.30036517500000 
