16

 C -3.27100415937500 1.43346105312500 5.53195438750000 
 C -3.33056515937500 5.13597805312500 5.48553538750000 
 C -4.49026215937500 1.07059305312500 4.87472338750000 
 C -4.49205415937500 4.54376405312500 4.87994138750000 
 N -2.25402515937500 1.54741605312500 4.71922938750000 
 N -2.35950115937500 5.33707705312500 4.59015438750000 
 N -4.40786615937500 0.926851053125000 3.57167338750000 
 N -4.52719615937500 4.47904605312500 3.53059338750000 
 N -5.03941615937500 1.27766505312500 7.40186138750000 
 N -5.06218315937500 4.93488005312500 7.39589238750000 
 S -5.79745615937500 0.725580053124999 5.99303438750000 
 S -5.82693715937500 4.32685105312500 6.03631938750000 
 S -2.80666715937500 1.26507405312500 3.16092338750000 
 S -2.95612915937500 4.89063005312500 3.10899538750000 
 S -3.39487615937500 1.47495705312500 7.33161838750000 
 S -3.44265415937500 5.13303905312500 7.21412938750000 
