16

 C -3.53484480937500 1.34755067187500 5.81207373750000 
 C -3.31429680937500 5.18292867187500 5.34729773750000 
 C -4.60193580937500 0.798192671874997 4.97128773750000 
 C -4.51984080937500 4.65000367187500 4.76584973750000 
 N -2.38346980937500 1.59699967187500 5.19104273750000 
 N -2.32322280937500 5.35746567187500 4.48838973750000 
 N -4.25293180937500 0.702216671874996 3.70381273750000 
 N -4.36748180937500 4.31714067187500 3.46793373750000 
 N -5.48141580937500 0.873825671874997 7.33249273750000 
 N -4.85335080937500 4.84128167187500 7.37061773750000 
 S -6.12250780937500 0.556386671874997 5.78080873750000 
 S -5.78921780937500 4.44310067187500 5.99500973750000 
 S -2.71025380937500 1.16197567187500 3.65809873750000 
 S -2.84300880937500 4.84212267187500 3.02972173750000 
 S -3.94390280937500 1.47431367187500 7.42229373750000 
 S -3.28286580937500 5.35184367187500 7.04127273750000 
