16

 C -3.18366035937500 1.13695725937500 5.43646235000000 
 C -3.09212935937500 5.24347125937500 5.56798735000000 
 C -4.27908635937500 0.509578259375003 4.78008235000000 
 C -4.32437535937500 4.82690225937500 4.91083035000000 
 N -2.11587735937500 1.27741225937500 4.66467735000000 
 N -2.02650835937500 5.23153425937500 4.80496635000000 
 N -3.98466835937500 0.121798259375002 3.54762535000000 
 N -4.15972635937500 4.58071425937500 3.65032335000000 
 N -5.03410935937500 1.23041925937500 7.13957135000000 
 N -4.90818935937500 5.24201925937500 7.39836735000000 
 S -5.72360435937500 0.608775259375003 5.79070335000000 
 S -5.61593435937500 4.72663425937500 6.03423735000000 
 S -2.43011535937500 0.496697259375003 3.25286135000000 
 S -2.59341435937500 4.86844325937500 3.25389935000000 
 S -3.41378135937500 1.56155425937500 7.08523035000000 
 S -3.32583735937500 5.59467425937500 7.24876335000000 
