16

 C -3.65347150000000 1.31736804375000 5.75754511562500 
 C -3.13764050000000 5.05435304375000 5.35761111562500 
 C -4.69979850000000 0.901350043749997 4.91359111562500 
 C -4.38394850000000 4.54591404375000 4.81120711562500 
 N -2.49624950000000 1.57543904375000 5.10958211562500 
 N -2.22851750000000 5.28393904375000 4.41310011562500 
 N -4.36065350000000 0.651456043749998 3.61655511562500 
 N -4.34619250000000 4.26307404375000 3.52553511562500 
 N -5.66958650000000 0.771667043749997 7.40026311562500 
 N -4.81893950000000 4.86854704375000 7.32707911562500 
 S -6.16142850000000 0.450383043749998 5.82809311562500 
 S -5.65716050000000 4.41388404375000 5.98750311562500 
 S -2.79491950000000 1.13800304375000 3.50244111562500 
 S -2.88080550000000 4.68176504375000 2.97680311562500 
 S -4.13589050000000 1.32683004375000 7.53597511562500 
 S -3.28503750000000 5.43871204375000 7.05357711562500 
