16

 C -3.36461762812500 1.56855310000000 5.45267940312500 
 C -3.13540062812500 5.49174210000000 5.64083340312500 
 C -4.45081762812500 0.941019099999997 4.78319040312500 
 C -4.26207562812500 4.86212410000000 5.00645240312500 
 N -2.31711562812500 1.70587210000000 4.69382940312500 
 N -2.13947462812500 5.76885210000000 4.77622340312500 
 N -4.29657762812500 0.726978099999998 3.46170540312500 
 N -4.26857462812500 4.89311510000000 3.64819940312500 
 N -5.26787262812500 1.29556710000000 7.21197340312500 
 N -4.74786862812500 5.11540710000000 7.49720940312500 
 S -5.89465862812500 0.729761099999997 5.77583040312500 
 S -5.54208762812500 4.63021710000000 6.12104240312500 
 S -2.69298662812500 1.18807910000000 3.17079140312500 
 S -2.71557862812500 5.45111110000000 3.25643340312500 
 S -3.71745762812500 1.92815710000000 7.17004240312500 
 S -3.20764562812500 5.59574210000000 7.37927840312500 
