16

 C -3.03069651875000 1.50036079687500 5.35243685937500 
 C -3.14046451875000 5.18953279687500 5.65759885937500 
 C -4.26841651875000 1.05647879687500 4.78421085937500 
 C -4.37687851875000 4.76632579687500 5.03256885937500 
 N -2.03668251875000 1.45868979687500 4.43988385937500 
 N -2.14149951875000 5.40545679687500 4.85150285937500 
 N -4.26376051875000 0.565853796874999 3.50693085937500 
 N -4.24318251875000 4.53726479687500 3.70942085937500 
 N -4.80632551875000 1.41705579687500 7.26762785937500 
 N -4.82561651875000 4.78586479687500 7.59193485937500 
 S -5.58798651875000 1.12750779687500 5.86442485937500 
 S -5.69416551875000 4.70767879687500 6.22322485937500 
 S -2.64738651875000 0.727838796875000 3.10732185937500 
 S -2.62123351875000 4.96330279687500 3.37790385937500 
 S -3.16885551875000 1.64763579687500 7.07507385937500 
 S -3.23459051875000 5.31980279687500 7.39733085937500 
