16

 C -3.09705475312500 1.20098060000000 5.81264480937500 
 C -3.20024075312500 5.04722960000000 5.48665080937500 
 C -4.21548875312500 0.612204599999998 5.16584780937500 
 C -4.39058975312500 4.48557060000000 4.87951380937500 
 N -2.04269675312500 1.36779360000000 5.03930780937500 
 N -2.17017075312500 5.26691560000000 4.67376180937500 
 N -4.05262875312500 0.418502599999998 3.87397780937500 
 N -4.25230275312500 4.26212060000000 3.59492780937500 
 N -4.70641775312500 0.832598599999998 7.64363680937500 
 N -4.84293675312500 4.48600560000000 7.38156680937500 
 S -5.52474175312500 0.439117599999998 6.26471480937500 
 S -5.71260275312500 4.18534660000000 5.99454680937500 
 S -2.42075775312500 0.769980599999998 3.55741780937500 
 S -2.74769275312500 4.82824060000000 3.18075080937500 
 S -3.15139575312500 1.42380660000000 7.50897780937500 
 S -3.37092175312500 5.28849660000000 7.16134880937500 
