16

 C -3.00318009687501 1.41017134687500 5.30671616875000 
 C -3.24916509687501 5.18296334687500 5.65939016875000 
 C -4.27567109687501 1.01779434687500 4.76113516875000 
 C -4.46582109687501 4.72744034687500 4.96093416875000 
 N -2.05406309687501 1.45503434687500 4.36401616875000 
 N -2.16573009687501 5.40923834687500 4.87532816875000 
 N -4.28332209687501 0.617701346874999 3.52046816875000 
 N -4.26349609687501 4.54690934687500 3.64370816875000 
 N -4.85622609687501 1.47003334687500 7.27948516875000 
 N -4.73961809687501 4.82019134687500 7.58804116875000 
 S -5.59970509687501 1.09557734687500 5.80866716875000 
 S -5.78099109687501 4.63738634687500 6.26395716875000 
 S -2.76960409687501 0.714537346874999 3.04102916875000 
 S -2.67126609687501 4.96868434687500 3.36869816875000 
 S -3.14533609687501 1.69388734687500 7.09356316875000 
 S -3.19842809687501 5.28015434687500 7.41690916875000 
