16

 C -3.12365847500000 1.38385948125000 5.49939013750000 
 C -3.09194047500000 5.01510148125000 5.59380213750000 
 C -4.34251147500000 0.820489481250002 4.90509713750000 
 C -4.29970947500000 4.53355648125000 4.98341913750000 
 N -2.13309347500000 1.56485048125000 4.65109813750000 
 N -2.13675847500000 5.37530348125000 4.71861013750000 
 N -4.29245447500000 0.602230481250002 3.57414113750000 
 N -4.24463447500000 4.49468448125000 3.63906913750000 
 N -4.83648947500000 1.14494848125000 7.45116013750000 
 N -4.93074847500000 4.76134148125000 7.44030813750000 
 S -5.70644147500000 0.763254481250002 6.05657913750000 
 S -5.70396347500000 4.40094848125000 6.01147713750000 
 S -2.71639947500000 1.06321348125000 3.14095713750000 
 S -2.76105547500000 5.12988648125000 3.23121013750000 
 S -3.23990547500000 1.57395448125000 7.30438713750000 
 S -3.29601447500000 5.11070348125000 7.33627413750000 
