16

 C -3.01253877812500 1.30535750625000 5.58365476562500 
 C -3.07678677812500 5.08366950625000 5.55463476562500 
 C -4.16230077812500 0.754813506250002 4.98157176562500 
 C -4.21067377812500 4.40591950625000 4.97669276562500 
 N -1.92290177812500 1.35399250625000 4.83458276562500 
 N -2.06293577812500 5.35053450625000 4.72396776562500 
 N -4.03220277812500 0.360887506250003 3.72688076562500 
 N -4.01795977812500 3.98547650625000 3.70772076562500 
 N -4.87898877812500 1.27921350625000 7.42703776562500 
 N -4.84372177812500 4.84577350625000 7.47545176562500 
 S -5.56917977812500 0.674996506250003 6.02847276562500 
 S -5.59832277812500 4.39541050625000 6.05454876562500 
 S -2.47105977812500 0.717059506250003 3.33268176562500 
 S -2.46651677812500 4.55683950625000 3.28777876562500 
 S -3.24710577812500 1.61063750625000 7.30758176562500 
 S -3.23091177812500 5.36002050625000 7.31782276562500 
