16

 C -3.15983878750000 1.46743950000000 5.24916560312500 
 C -3.08854678750000 5.24859250000000 5.56414560312500 
 C -4.30753778750000 0.963274500000002 4.59169460312500 
 C -4.35176678750000 4.77958450000000 5.01024060312500 
 N -2.15739678750000 1.78949050000000 4.45468260312500 
 N -2.07904278750000 5.26442250000000 4.70066960312500 
 N -4.36001578750000 0.986040500000001 3.24060660312500 
 N -4.35025578750000 4.57739850000000 3.69247260312500 
 N -4.73564378750000 0.513589500000001 7.21646560312500 
 N -4.63046978750000 5.03004550000000 7.54250960312500 
 S -5.50837878750000 0.286639500000001 5.74851960312500 
 S -5.54781778750000 4.43999750000000 6.24733960312500 
 S -2.79794678750000 1.59039150000000 2.89402360312500 
 S -2.71281978750000 4.90855250000000 3.23386660312500 
 S -3.25667278750000 1.30723250000000 7.05707760312500 
 S -3.07213678750000 5.58986250000000 7.21698760312500 
