16

 C -3.38586059687500 1.39945267500001 5.51578210000000 
 C -2.94811159687500 5.12569567500001 5.80188110000000 
 C -4.61298259687500 1.11623567500000 4.82847810000000 
 C -4.32176559687500 4.94533467500001 5.25081710000000 
 N -2.32662259687500 1.62929967500000 4.78402410000000 
 N -1.99663759687500 5.21905267500000 4.84788810000000 
 N -4.54849159687500 1.24843767500000 3.52430610000000 
 N -4.38159559687500 4.86309567500000 3.90238310000000 
 N -5.15638659687500 1.31257267500000 7.37106410000000 
 N -4.71869959687500 5.22087667500001 7.69417310000000 
 S -5.92130959687500 0.815443675000005 5.97295810000000 
 S -5.62893459687500 4.99002267500000 6.37996710000000 
 S -2.90091159687500 1.56788367500001 3.19487510000000 
 S -2.84608159687500 5.01067967500000 3.35420210000000 
 S -3.55739959687500 1.73265767500000 7.17384810000000 
 S -3.03168359687500 5.33135067500001 7.58119010000000 
