16

 C -3.14191895312500 1.68732710625000 5.57011401562500 
 C -3.16097995312500 5.01598310625000 5.52930801562500 
 C -4.45610095312500 1.56913310625000 5.04711201562500 
 C -4.40425195312500 4.67625410625000 4.85916801562500 
 N -2.21755195312500 1.73871410625000 4.62592401562500 
 N -2.16054595312500 5.34035210625000 4.71954501562500 
 N -4.55522995312500 1.40323110625000 3.73888901562500 
 N -4.28704195312500 4.57168510625000 3.53949001562500 
 N -4.72337095312500 1.60308910625000 7.56874901562500 
 N -4.77883195312500 4.53023910625000 7.40956901562500 
 S -5.67909895312500 1.50629010625000 6.23577201562500 
 S -5.70700095312500 4.39461110625000 6.04802001562500 
 S -2.93069295312500 1.61692210625000 3.18096001562500 
 S -2.69244495312500 5.10133110625000 3.16732701562500 
 S -3.06711395312500 1.61147410625000 7.27371601562500 
 S -3.18185495312500 4.83309710625000 7.24825001562500 
