16

 C -3.31980395312500 1.29180733125000 5.25388994062500 
 C -3.20063595312500 5.35512433125000 5.58526194062500 
 C -4.52032895312500 0.709721331250004 4.76230394062500 
 C -4.33423995312500 5.14355333125000 4.77611794062500 
 N -2.29142895312500 1.45743833125000 4.39456994062500 
 N -2.12019295312500 5.54440233125000 4.84554094062500 
 N -4.51381095312500 0.587806331250004 3.45712094062500 
 N -4.20934495312500 5.17020833125000 3.46597394062500 
 N -5.00115295312500 1.03991833125000 7.28860394062500 
 N -5.12582595312500 5.02209033125000 7.25673294062500 
 S -5.83903295312500 0.463441331250004 5.92433894062500 
 S -5.74970695312500 5.03159633125000 5.70656794062500 
 S -2.97496395312500 0.893244331250004 2.90278794062500 
 S -2.59521895312500 5.41275333125000 3.22994094062500 
 S -3.44471795312500 1.58834733125000 6.97837094062500 
 S -3.49493395312500 5.17044433125000 7.27244394062500 
