16

 C -3.19153206250000 0.867888662499998 5.69971181562500 
 C -3.02975106250000 5.09518366250000 5.44411981562500 
 C -4.39926206250000 0.576333662499998 4.93380581562500 
 C -4.15844106250000 4.58735466250000 4.74276981562500 
 N -2.07822606250000 1.13089466250000 4.95023181562500 
 N -1.97355506250000 5.28038966250000 4.67675181562500 
 N -4.21789206250000 0.475224662499998 3.59928381562500 
 N -3.96794406250000 4.31298066250000 3.45906881562500 
 N -5.12179306250000 0.744806662499998 7.34818481562500 
 N -4.80875706250000 4.79788266250000 7.27437681562500 
 S -5.85228006250000 0.322818662499998 5.83659081562500 
 S -5.47011106250000 4.26719666250000 5.82448981562500 
 S -2.63132406250000 0.945293662499997 3.39461681562500 
 S -2.38754706250000 4.76934966250000 3.17342981562500 
 S -3.47814406250000 0.978253662499998 7.35819781562500 
 S -3.12859106250000 5.17250166250000 7.16578481562500 
