16

 C -3.00463171875000 1.36242188437500 5.64241750312500 
 C -3.01885571875000 5.04067488437500 5.41989550312500 
 C -4.28020471875000 0.966990884375000 5.00541850312500 
 C -4.14350371875000 4.30342588437500 4.89974850312500 
 N -1.95399471875000 1.33493688437500 4.81337450312500 
 N -2.00533771875000 5.04935288437500 4.56195750312500 
 N -4.15451671875000 0.661712884375000 3.73936250312500 
 N -4.05097371875000 3.87555888437500 3.62884350312500 
 N -4.75667771875000 1.16074288437500 7.59970750312500 
 N -4.70650071875000 5.10017788437500 7.27043450312500 
 S -5.59688971875000 0.821050884375000 6.13642050312500 
 S -5.43364971875000 4.23975488437500 6.07039550312500 
 S -2.57458671875000 0.981114884375000 3.32484650312500 
 S -2.50090171875000 4.31733388437500 3.17765750312500 
 S -3.16245571875000 1.54613288437500 7.38819050312500 
 S -3.10423571875000 5.45705988437500 7.11085050312500 
