16

 C -3.24064532812500 1.56069628750001 5.62333850000000 
 C -2.98767032812500 5.28442828750001 5.89477050000000 
 C -4.28834332812500 0.833096287500006 4.93694350000000 
 C -4.18964932812500 4.71048128750000 5.36114450000000 
 N -2.35290132812500 2.08560028750001 4.82378350000000 
 N -2.07140232812500 5.64999428750001 4.98180950000000 
 N -4.07574532812500 0.772215287500006 3.60170850000000 
 N -4.15622832812500 4.47413028750001 4.01342150000000 
 N -5.04627532812500 1.11433028750001 7.46999850000000 
 N -4.74504632812500 4.99269728750000 7.79950550000000 
 S -5.66238032812500 0.589056287500006 5.96906550000000 
 S -5.49006932812500 4.56783028750001 6.49149550000000 
 S -2.63790732812500 1.51524128750000 3.30648750000000 
 S -2.72433232812500 5.10743628750001 3.51897550000000 
 S -3.50487832812500 1.79275128750001 7.34391550000000 
 S -3.19078432812500 5.50266628750000 7.65034750000000 
