16

 C -3.09334802812500 1.40226455312500 5.47763760937500 
 C -3.24935702812500 4.98171655312500 5.58885960937500 
 C -4.34933102812500 0.934120553125000 4.87661760937500 
 C -4.42574902812500 4.60362755312500 4.88145760937500 
 N -2.20203002812500 1.68310455312500 4.56147060937500 
 N -2.24323902812500 5.38722355312500 4.83935160937500 
 N -4.22300102812500 0.699795553125000 3.58060460937500 
 N -4.27765802812500 4.54874555312500 3.54702660937500 
 N -4.75349802812500 1.10570255312500 7.46600060937500 
 N -4.94500402812500 4.85904055312500 7.41979560937500 
 S -5.62767102812500 0.932256553125001 6.07029260937500 
 S -5.70746902812500 4.38637355312500 6.04585760937500 
 S -2.65473402812500 1.05474855312500 3.08528360937500 
 S -2.73531002812500 5.12429255312500 3.23599960937500 
 S -3.19304702812500 1.64754255312500 7.20766560937500 
 S -3.32227202812500 5.06472855312500 7.31453760937500 
