16

 C -3.20334563437500 1.42245641250000 5.59083668125000 
 C -3.34741263437500 5.10603941250000 5.40988768125000 
 C -4.34078163437500 0.855327412500001 4.89095968125000 
 C -4.55390163437500 4.74469741250000 4.73074068125000 
 N -2.13748963437500 1.66776041250000 4.82317468125000 
 N -2.32941663437500 5.46227141250000 4.65906868125000 
 N -4.17697463437500 0.725551412500001 3.55926168125000 
 N -4.40732363437500 4.79228441250000 3.39971368125000 
 N -5.03382263437500 1.21723641250000 7.42527868125000 
 N -5.13138863437500 4.81933241250000 7.30742568125000 
 S -5.69328763437500 0.613436412500001 6.05426568125000 
 S -5.87716463437500 4.43051341250000 5.87898968125000 
 S -2.61432463437500 1.21423341250000 3.27237568125000 
 S -2.84393363437500 5.18442841250000 3.09231768125000 
 S -3.41384763437500 1.60535241250000 7.34966268125000 
 S -3.50557563437500 5.27211441250000 7.09149768125000 
