16

 C -3.40193172500000 1.25621134375000 5.30052578125000 
 C -3.21089772500000 5.43270334375000 5.64714378125000 
 C -4.56422972500000 0.734205343750000 4.68602478125000 
 C -4.36739672500000 5.16533534375000 4.81407278125000 
 N -2.38647972500000 1.42447634375000 4.46166578125000 
 N -2.10292872500000 5.64648634375000 4.94092078125000 
 N -4.42130572500000 0.385000343750000 3.40582078125000 
 N -4.12832172500000 5.11729834375000 3.52228478125000 
 N -4.98948772500000 1.08042134375000 7.24505578125000 
 N -5.16246472500000 5.10140634375000 7.26748778125000 
 S -5.77553372500000 0.437835343750000 5.89885178125000 
 S -5.89595472500000 5.05780234375000 5.82689078125000 
 S -2.90725872500000 0.985276343750000 3.02035478125000 
 S -2.48692572500000 5.40035434375000 3.33347878125000 
 S -3.46775872500000 1.57289834375000 7.03392778125000 
 S -3.50161372500000 5.30475534375000 7.38710678125000 
