16

 C -3.31407234687500 1.42324062812500 5.64095029687500 
 C -3.57805734687500 5.22942162812500 5.55763629687500 
 C -4.51959734687500 0.931909628125001 5.00122629687500 
 C -4.69445634687500 4.67771862812500 4.87221429687500 
 N -2.34307534687500 1.81000262812500 4.81485229687500 
 N -2.55657434687500 5.61247862812500 4.72952929687500 
 N -4.39271134687500 0.802123628125001 3.67818629687500 
 N -4.44082034687500 4.39750662812500 3.57019529687500 
 N -4.91830034687500 1.03323362812500 7.55209929687500 
 N -5.27096534687500 4.87402062812500 7.35628429687500 
 S -5.72710834687500 0.600071628125001 6.14909829687500 
 S -5.91965934687500 4.18541362812500 5.99672829687500 
 S -2.88912634687500 1.37430562812500 3.31923829687500 
 S -2.96219634687500 5.13346462812500 3.23353529687500 
 S -3.27565634687500 1.54876362812500 7.38067929687500 
 S -3.78189834687500 5.51906362812500 7.26836829687500 
