16

 C -3.15081628750000 1.37877252812500 5.36790450312500 
 C -3.40214928750000 5.25466752812500 5.30445950312500 
 C -4.44454328750000 1.00468552812500 4.84329750312500 
 C -4.59346328750000 4.61681352812500 4.79744950312500 
 N -2.16376128750000 1.52845452812500 4.49427050312500 
 N -2.45899228750000 5.59097852812500 4.40762350312500 
 N -4.44173428750000 0.764222528125000 3.48860950312500 
 N -4.55953928750000 4.31679052812500 3.50209150312500 
 N -4.61552928750000 1.22483252812500 7.36646550312500 
 N -4.82336628750000 4.60369852812500 7.42907050312500 
 S -5.61810228750000 0.926000528125000 6.09472450312500 
 S -5.72375828750000 4.22002752812500 6.04751250312500 
 S -2.76008528750000 0.912428528125000 3.06209550312500 
 S -3.06810828750000 4.93990852812500 2.95914250312500 
 S -3.04449028750000 1.55611852812500 7.07613350312500 
 S -3.33518828750000 5.24006052812500 7.11621850312500 
