16

 C -3.12579328125000 1.36643553125000 5.30403242500000 
 C -3.02095128125000 4.95600753125000 5.56661042500000 
 C -4.24799228125000 0.631700531250000 4.66158942500000 
 C -4.30040828125000 4.61097553125000 5.03829642500000 
 N -2.24748328125000 1.71811653125000 4.37375942500000 
 N -2.02227328125000 5.04747753125000 4.66592542500000 
 N -4.06199028125000 0.454696531250000 3.36125742500000 
 N -4.27985328125000 4.53722153125000 3.70481342500000 
 N -4.90344628125000 0.956614531250001 7.18473742500000 
 N -4.59344028125000 4.85058353125000 7.62088842500000 
 S -5.55455428125000 0.295144531250000 5.78467142500000 
 S -5.54119828125000 4.40859953125000 6.29837842500000 
 S -2.58666928125000 1.08949153125000 2.91882842500000 
 S -2.72985928125000 4.76787353125000 3.21997642500000 
 S -3.39995728125000 1.56320253125000 7.02386542500000 
 S -2.98437128125000 5.04351453125000 7.28001942500000 
