16

 C -3.00257184375000 1.54359061250000 5.61491556875000 
 C -2.99859584375000 5.21414461250000 5.69536356875000 
 C -4.31407684375000 1.31181661250000 5.01474356875000 
 C -4.24230884375000 4.92159261250000 5.02002856875000 
 N -2.08230684375000 1.84280461250000 4.70745356875000 
 N -2.01391884375000 5.52023161250000 4.84961556875000 
 N -4.34169884375000 1.27551161250000 3.67937256875000 
 N -4.17614984375000 4.83313361250000 3.69141256875000 
 N -4.73695184375000 1.53337861250000 7.48761456875000 
 N -4.88547184375000 4.89250461250000 7.45728856875000 
 S -5.65855984375000 1.28909061250000 6.16287856875000 
 S -5.61953384375000 4.57246761250000 5.99343956875000 
 S -2.83717684375000 1.64463761250000 3.23813656875000 
 S -2.61522984375000 5.17968161250000 3.29412956875000 
 S -3.08059084375000 1.78326661250000 7.35500556875000 
 S -3.28982384375000 5.26574061250000 7.39099256875000 
