16

 C -3.15568202500000 1.23689263125000 5.73015859375000 
 C -3.13403102500000 5.16471163125000 5.56240459375000 
 C -4.43687302500000 0.879806631250001 5.15013359375000 
 C -4.34269202500000 4.58369263125000 5.00824459375000 
 N -2.14940502500000 1.17222363125000 4.83636859375000 
 N -2.10174102500000 5.37230863125000 4.71341559375000 
 N -4.39465902500000 0.608586631250001 3.83965059375000 
 N -4.28697802500000 4.53404863125000 3.69331159375000 
 N -4.92185102500000 1.52291563125000 7.68026359375000 
 N -4.91759302500000 5.05880663125000 7.43809859375000 
 S -5.80802302500000 1.17740963125000 6.28811359375000 
 S -5.68873402500000 4.55559063125000 6.09407459375000 
 S -2.82021002500000 0.904456631250001 3.33972759375000 
 S -2.82991302500000 5.07233663125000 3.19252259375000 
 S -3.26263502500000 1.57456263125000 7.48279659375000 
 S -3.38017102500000 5.43806163125000 7.25939959375000 
