16

 C -2.93310765625000 1.30063641562500 5.36639380000000 
 C -3.30081465625000 5.32802541562500 5.30224580000000 
 C -4.17711065625000 0.976277415624997 4.75065580000000 
 C -4.39496465625000 4.58805541562500 4.75817880000000 
 N -1.92830365625000 1.58442441562500 4.56619080000000 
 N -2.31143565625000 5.56858841562500 4.45624180000000 
 N -4.07525265625000 0.768184415624997 3.45621980000000 
 N -4.09825265625000 4.00651941562500 3.59649080000000 
 N -4.66404365625000 1.06885941562500 7.30992380000000 
 N -5.21959365625000 5.29597441562500 7.13480480000000 
 S -5.56921565625000 0.990011415624998 5.88871680000000 
 S -5.79423065625000 4.36729041562500 5.83605980000000 
 S -2.45023065625000 1.08581841562500 3.10603880000000 
 S -2.61683965625000 4.63835441562500 3.12803480000000 
 S -3.06584765625000 1.48935641562500 7.10702980000000 
 S -3.62701965625000 5.93267041562500 6.87785380000000 
