16

 C -3.15296969062500 1.24119824062500 5.73545570625000 
 C -3.13296869062500 5.17681024062500 5.56817870625000 
 C -4.44261669062500 0.888368240625001 5.14573470625000 
 C -4.33880669062500 4.58465624062500 5.00994070625000 
 N -2.15862269062500 1.17328324062500 4.82898570625000 
 N -2.10247169062500 5.38374924062500 4.71124070625000 
 N -4.39651269062500 0.612817240625001 3.83763770625000 
 N -4.28717569062500 4.53848724062500 3.68791570625000 
 N -4.92634769062500 1.52043124062500 7.67387770625000 
 N -4.91996169062500 5.06043724062500 7.43816270625000 
 S -5.80490769062500 1.17633224062500 6.28747270625000 
 S -5.69110969062500 4.55388924062500 6.08814470625000 
 S -2.82194469062500 0.908257240625001 3.33811270625000 
 S -2.82791369062500 5.07231924062500 3.19262770625000 
 S -3.26820569062500 1.56873624062500 7.48640570625000 
 S -3.37918869062500 5.43690024062500 7.26258870625000 
