16

 C -3.03473756250000 1.61935475937500 5.42887211562500 
 C -3.20200756250000 5.11956375937500 5.60047011562500 
 C -4.29108256250000 1.18492375937500 4.86361611562500 
 C -4.47800956250000 4.84437475937500 4.94958711562500 
 N -2.01342556250000 1.60941575937500 4.57032911562500 
 N -2.16314256250000 5.34319775937500 4.79970011562500 
 N -4.23415756250000 0.775310759375004 3.59738111562500 
 N -4.33313956250000 4.70398275937500 3.64597311562500 
 N -4.60551356250000 1.24686975937500 7.32360711562500 
 N -4.96165856250000 4.76782575937500 7.39236111562500 
 S -5.59375556250000 1.05835875937500 6.01800711562500 
 S -5.79169056250000 4.32481675937500 6.01948811562500 
 S -2.69129556250000 1.17316575937500 3.10308211562500 
 S -2.75776656250000 5.02141875937500 3.21470011562500 
 S -3.04971856250000 1.83593975937500 7.10370311562500 
 S -3.37788056250000 5.08210675937500 7.29497711562500 
