16

 C -3.11124626875000 0.897403181250005 5.61234182812500 
 C -3.27423426875000 4.84413718125001 5.25713882812500 
 C -4.36513226875000 0.741778181250004 4.91369982812500 
 C -4.46431726875000 4.27951318125000 4.62963082812500 
 N -2.08398726875000 1.19360818125000 4.76667682812500 
 N -2.27509126875000 5.10501618125000 4.41578882812500 
 N -4.31624926875000 0.756101181250004 3.56011182812500 
 N -4.31189626875000 4.11292518125000 3.32930582812500 
 N -4.94700826875000 0.742697181250005 7.45692682812500 
 N -5.08381226875000 4.70913318125000 7.16546782812500 
 S -5.69103126875000 0.495202181250005 5.98797582812500 
 S -5.83248726875000 4.06583718125001 5.73691482812500 
 S -2.71251826875000 0.977292181250005 3.27304282812500 
 S -2.79099626875000 4.67646218125000 2.94589682812500 
 S -3.25662626875000 0.870547181250005 7.35864982812500 
 S -3.54375226875000 5.32976918125000 6.87957082812500 
