16

 C -3.41320999062500 1.27457024062500 5.91645885625000 
 C -3.15125899062500 5.05565324062500 5.19080385625000 
 C -4.57500999062500 0.838291240625000 5.15593085625000 
 C -4.38052999062500 4.73142624062500 4.46616485625000 
 N -2.34496699062500 1.41977824062500 5.20265085625000 
 N -2.09386699062500 5.10996224062500 4.40972885625000 
 N -4.35215199062500 0.825511240625000 3.86885385625000 
 N -4.21917499062500 4.44927624062500 3.17837685625000 
 N -5.33700199062500 0.995562240625000 7.64174185625000 
 N -5.05326199062500 4.91961524062500 6.99019885625000 
 S -6.00937099062500 0.577702240625000 6.17656685625000 
 S -5.73110999062500 4.52882924062500 5.55072385625000 
 S -2.73344699062500 1.22300124062500 3.60074485625000 
 S -2.62635399062500 4.75707024062500 2.86248885625000 
 S -3.72353199062500 1.29558024062500 7.57341685625000 
 S -3.39048799062500 5.28524724062500 6.95164185625000 
