16

 C -3.36360942187499 1.16759240625000 5.53288589375000 
 C -3.12823442187499 5.04661940625000 5.33290689375000 
 C -4.46068642187499 0.605095406250001 4.80327089375000 
 C -4.36504842187500 4.67337440625000 4.60163189375000 
 N -2.30718142187499 1.43898940625000 4.72510589375000 
 N -2.00639942187499 4.97799540625000 4.60776689375000 
 N -4.32778642187500 0.529035406250001 3.47506189375000 
 N -4.15218142187500 4.37059540625000 3.34884989375000 
 N -5.39383542187499 1.16645740625000 7.05498089375000 
 N -5.05211742187499 5.39101140625000 7.05193489375000 
 S -5.90613442187500 0.214570406250001 5.78271189375000 
 S -5.76711342187499 4.82313640625000 5.69103189375000 
 S -2.79381142187499 0.968547406250000 3.20940989375000 
 S -2.46572242187499 4.52661940625000 3.11572989375000 
 S -3.83398942187500 1.59817740625000 7.19144589375000 
 S -3.40774042187499 5.53924840625000 6.99759689375000 
