16

 C -3.02342215312500 1.27361249062500 5.76180814687500 
 C -3.20420215312500 5.04462649062500 5.46604414687500 
 C -4.19887915312500 0.706681490624997 5.12135614687500 
 C -4.38007215312500 4.56794049062500 4.86140514687500 
 N -1.95697915312500 1.46035049062500 4.96984514687500 
 N -2.19912015312500 5.27347049062500 4.61560314687500 
 N -3.96746215312500 0.321258490624998 3.86519314687500 
 N -4.25438815312500 4.25946549062500 3.57221714687500 
 N -4.70988215312500 0.779257490624998 7.66468714687500 
 N -4.85367515312500 4.63266949062500 7.38704914687500 
 S -5.51098315312500 0.376283490624997 6.28830314687500 
 S -5.66431015312500 4.24866049062500 5.99832214687500 
 S -2.41862415312500 0.753093490624997 3.55428414687500 
 S -2.71134415312500 4.66462249062500 3.13807014687500 
 S -3.19820815312500 1.45594649062500 7.45626414687500 
 S -3.34102415312500 5.20390149062500 7.17575914687500 
