16

 C -3.05731161250000 1.36637475937501 5.46449631250000 
 C -2.90842861250000 5.17852475937501 5.47242231250000 
 C -4.21205961250000 0.866270759375005 4.73042031250000 
 C -4.18089461250000 4.91931475937500 4.91964931250000 
 N -1.98132361250000 1.58506875937501 4.75912031250000 
 N -1.93505961250000 5.27797175937501 4.60483931250000 
 N -3.96921161250000 0.640458759375005 3.45913531250000 
 N -4.15784561250000 4.67137575937501 3.61849731250000 
 N -4.97687861250000 1.19085775937501 7.21594931250000 
 N -4.64176861250000 5.11433675937500 7.34475831250000 
 S -5.59731361250000 0.615984759375006 5.72709031250000 
 S -5.49434461250000 5.00016775937501 5.96307431250000 
 S -2.33582861250000 1.08184975937500 3.19486631250000 
 S -2.59661261250000 4.88981575937501 3.10552131250000 
 S -3.31574961250000 1.34232875937500 7.16875631250000 
 S -3.09579261250000 5.41890975937501 7.18824431250000 
