16

 C -2.98142358750000 1.23738955000000 5.35052229687500 
 C -2.85167158750000 5.12861655000000 5.63400929687500 
 C -4.17096158750000 0.756253549999996 4.62024729687500 
 C -4.13138258750000 4.65943255000000 5.13912029687500 
 N -1.91266458750000 1.48267455000000 4.63007429687500 
 N -1.92158558750000 5.31546055000000 4.68775829687500 
 N -3.93267658750000 0.568298549999996 3.32453329687500 
 N -4.17943858750000 4.43288655000000 3.84065329687500 
 N -4.70280258750000 0.760540549999996 7.11271429687500 
 N -4.42152958750000 4.80175155000000 7.74519929687500 
 S -5.45153458750000 0.314670549999996 5.72081029687500 
 S -5.31707458750000 4.37385855000000 6.40986329687500 
 S -2.38259358750000 1.07683955000000 3.05897829687500 
 S -2.66938558750000 4.79632455000000 3.23459329687500 
 S -3.17308858750000 1.43455355000000 7.02811829687500 
 S -2.83189158750000 5.31592155000000 7.46121429687500 
