16

 C -2.86334837812500 1.41363635625000 5.79638316562500 
 C -3.15236837812500 4.82163635625000 5.66198916562500 
 C -4.17578437812500 1.17474435625000 5.12526616562500 
 C -4.45021637812500 4.70774635625000 5.00417316562500 
 N -1.84123637812500 1.43741335625000 4.91958916562500 
 N -2.15986337812500 4.78878335625000 4.77851916562500 
 N -4.11126637812500 1.15218335625000 3.77576716562500 
 N -4.38120137812500 4.71059035625000 3.67787016562500 
 N -4.64333437812500 1.47788235625000 7.69105816562500 
 N -5.04726137812500 4.70684535625000 7.47211516562500 
 S -5.54164037812500 1.24671735625000 6.25286616562500 
 S -5.83926437812500 4.49439835625000 6.04143116562500 
 S -2.46485237812500 1.29708435625000 3.44332816562500 
 S -2.77867337812500 4.80175735625000 3.23934816562500 
 S -2.98095437812500 1.60009635625000 7.50874616562500 
 S -3.41358637812500 5.03369335625000 7.40883816562500 
