16

 C -3.15274684375000 1.42121657187500 5.38583414687500 
 C -3.22970484375000 5.28604857187500 5.72039714687500 
 C -4.26244084375000 0.660954571874999 4.87728814687500 
 C -4.37623584375000 4.71949357187500 5.07201214687500 
 N -2.20109884375000 1.57191357187500 4.46822514687500 
 N -2.11482884375000 5.38236157187500 4.92473914687500 
 N -4.11982184375000 0.174283571875000 3.66146514687500 
 N -4.21210984375000 4.48067857187500 3.75599414687500 
 N -4.98915084375000 1.55431757187500 7.16158814687500 
 N -5.00794784375000 5.02776857187500 7.58843914687500 
 S -5.67414984375000 0.729455571875000 5.87864714687500 
 S -5.71485684375000 4.53933157187500 6.17453414687500 
 S -2.63688784375000 0.638216571875000 3.10663714687500 
 S -2.68153884375000 4.92667857187500 3.38326214687500 
 S -3.43834384375000 2.06440657187500 6.96765014687500 
 S -3.51120784375000 5.74073557187500 7.33797514687500 
