16

 C -3.51999376875000 1.32984725624999 5.50927530312500 
 C -3.00876676875000 5.17791825625000 5.41226230312500 
 C -4.53396876875000 0.580099256249995 4.75066330312500 
 C -4.20711076875000 4.81638225625000 4.68367630312500 
 N -2.44266276875000 1.64331325624999 4.81528530312500 
 N -1.92576576875000 5.04984925625000 4.64423630312500 
 N -4.16310276875000 0.318816256249995 3.49601430312500 
 N -4.06707176875000 4.44539425625000 3.42158130312500 
 N -5.35590576875000 1.00065125624999 7.29636030312500 
 N -5.01504676875000 5.28227625624999 7.02317230312500 
 S -5.89816876875000 0.201584256249995 5.87047930312500 
 S -5.71389876875000 4.87737025624999 5.58964430312500 
 S -2.68630976875000 1.04107125625000 3.31050330312500 
 S -2.41711076875000 4.55455325625000 3.17932930312500 
 S -3.87259176875000 1.69608625624999 7.16565130312500 
 S -3.36354876875000 5.52052125625000 7.15532830312500 
