16

 C -3.09614981875000 1.20088689062500 5.76675608750000 
 C -3.22931981875000 5.03390689062500 5.53546408750000 
 C -4.35862881875000 0.880547890624999 5.18831108750000 
 C -4.46461881875000 4.55901289062500 4.96211208750000 
 N -2.08168981875000 1.16490589062500 4.92685208750000 
 N -2.18570481875000 5.14155589062500 4.72112408750000 
 N -4.31451981875000 0.591739890624999 3.89734408750000 
 N -4.39446381875000 4.53534789062500 3.61717208750000 
 N -4.73149681875000 1.47065589062500 7.60534908750000 
 N -4.80888681875000 5.00488489062500 7.48552008750000 
 S -5.62933681875000 1.08227289062500 6.29429908750000 
 S -5.73747281875000 4.51779889062500 6.12853608750000 
 S -2.70540181875000 0.705198890624998 3.52540208750000 
 S -2.80359381875000 4.85010389062500 3.20319908750000 
 S -3.13879381875000 1.77460289062500 7.38441808750000 
 S -3.19976681875000 5.44289789062500 7.25837308750000 
