16

 C -3.09781888750000 1.28256609687500 5.23062175000000 
 C -3.15560088750000 5.11354109687500 5.61098175000000 
 C -4.42866988750000 0.924348096875002 4.71925875000000 
 C -4.42345188750000 4.71814709687500 5.08224075000000 
 N -2.09684688750000 1.14354909687500 4.36171975000000 
 N -2.20222088750000 5.32052809687500 4.73448275000000 
 N -4.38565188750000 0.595569096875002 3.41801875000000 
 N -4.45619088750000 4.57207609687500 3.76500375000000 
 N -4.80518888750000 1.59415809687500 7.13933675000000 
 N -4.90163588750000 4.87344409687500 7.63575775000000 
 S -5.70776488750000 0.991327096875002 5.93946675000000 
 S -5.68727088750000 4.49842009687500 6.19853375000000 
 S -2.82968388750000 0.846052096875002 2.89908575000000 
 S -2.90126788750000 4.98253209687500 3.28646175000000 
 S -3.17262688750000 1.73579409687500 6.92749875000000 
 S -3.28700288750000 5.21933509687500 7.35987375000000 
