16

 C -2.97327325312500 1.43007030312500 5.44731435312500 
 C -3.35792625312500 5.43556130312500 5.32460735312500 
 C -4.21578625312500 1.00077830312500 4.81278935312500 
 C -4.35256625312500 4.52136630312500 4.78144735312500 
 N -1.92957625312500 1.43876730312500 4.59345635312500 
 N -2.30291925312500 5.66894230312500 4.54462835312500 
 N -4.11326225312500 0.722697303124999 3.54861335312500 
 N -4.07583825312500 4.08034230312500 3.53908035312500 
 N -4.67958225312500 0.961935303124999 7.25935835312500 
 N -5.12614725312500 5.38106830312500 7.10372835312500 
 S -5.61176425312500 0.964160303124999 5.87886235312500 
 S -5.69056225312500 4.43193530312500 5.86925735312500 
 S -2.59113225312500 1.03767530312500 3.07352335312500 
 S -2.55743125312500 4.77069530312500 3.15790035312500 
 S -3.02770125312500 1.39937130312500 7.14783235312500 
 S -3.60465325312500 5.90603430312500 6.96882435312500 
