16

 C -3.45374191250000 1.62072847500000 5.43516339687500 
 C -3.20147791250000 5.14132847500000 5.65409639687500 
 C -4.53561591250000 1.06104947500000 4.65092239687500 
 C -4.46622991250000 4.89397347500000 5.01525239687500 
 N -2.42070291250000 2.02798747500000 4.67993539687500 
 N -2.20170991250000 5.25495347500000 4.84346539687500 
 N -4.32126491250000 0.989332475000002 3.31877639687500 
 N -4.40196691250000 4.77588347500000 3.70161239687500 
 N -5.39950491250000 1.48164247500000 7.09293439687500 
 N -4.89947291250000 5.04288047500000 7.52281139687500 
 S -5.97635691250000 0.742657475000002 5.68882639687500 
 S -5.73380491250000 4.71857547500000 6.16381339687500 
 S -2.78444491250000 1.52382447500000 3.09723639687500 
 S -2.76778791250000 4.96054447500000 3.34181439687500 
 S -3.79859891250000 1.98926747500000 7.05964939687500 
 S -3.25595191250000 5.30389847500000 7.39877939687500 
