16

 C -3.25656461562500 1.05021551250000 5.55095778125000 
 C -3.24189161562500 5.11789151250000 5.71869378125000 
 C -4.48020061562500 0.755492512500001 4.80231378125000 
 C -4.37252561562500 4.52071151250000 5.08132878125000 
 N -2.22998861562500 1.20983151250000 4.71047678125000 
 N -2.24555861562500 5.36828651250000 4.89004478125000 
 N -4.42668861562500 0.779986512500002 3.46417378125000 
 N -4.25890961562500 4.31059751250000 3.78878778125000 
 N -5.04411861562500 0.546415512500001 7.25855678125000 
 N -4.87646661562500 4.47428851250000 7.59843178125000 
 S -5.84033561562500 0.456603512500001 5.81824878125000 
 S -5.72335061562500 4.18973651250000 6.15612978125000 
 S -2.83318961562500 1.02632551250000 3.18629978125000 
 S -2.77453961562500 4.93485851250000 3.38121878125000 
 S -3.37524961562500 0.909100512500001 7.29907978125000 
 S -3.40482361562500 5.28966351250000 7.46789478125000 
