16

 C -3.03308285937500 1.44066418437500 5.55118805625000 
 C -3.24084685937500 5.04261118437500 5.41501505625000 
 C -4.22447385937500 0.862986184374999 4.78470805625000 
 C -4.45957885937500 4.48777018437500 4.87994805625000 
 N -1.97629885937500 1.62692018437500 4.76449905625000 
 N -2.23673785937500 5.15035818437500 4.56914105625000 
 N -4.01836185937500 0.624662184375000 3.48787605625000 
 N -4.43678885937500 4.30881018437500 3.57400705625000 
 N -4.98737485937500 1.36743718437500 7.18830105625000 
 N -4.90047485937500 5.23748118437500 7.29930305625000 
 S -5.65979885937500 0.864157184374999 5.71238805625000 
 S -5.74968585937500 4.49942018437500 6.07976905625000 
 S -2.43582985937500 1.05162918437500 3.22474905625000 
 S -2.85342085937500 4.63323918437500 3.09173705625000 
 S -3.37027185937500 1.88667618437500 7.14500805625000 
 S -3.31647985937500 5.57553718437500 7.02022905625000 
