16

 C -3.23025631250000 1.52402809062500 5.46587573437500 
 C -2.96648831250000 5.06053209062500 5.49481173437500 
 C -4.48344531250000 1.05757409062500 4.89095573437500 
 C -4.24370431250000 4.69394009062500 4.92667873437500 
 N -2.31041531250000 1.78589509062500 4.55641773437500 
 N -1.93844331250000 5.15463109062500 4.68264873437500 
 N -4.47274831250000 0.936959090624998 3.51506573437500 
 N -4.13547531250000 4.36003909062500 3.65960773437500 
 N -4.82263931250000 1.41468509062500 7.51638373437500 
 N -4.71637031250000 5.08372709062500 7.45307473437500 
 S -5.72402631250000 0.894937090624998 6.14940273437500 
 S -5.58791231250000 4.78545409062500 6.06194873437500 
 S -2.87136431250000 1.38078009062500 3.07146473437500 
 S -2.51053731250000 4.59519509062500 3.22271273437500 
 S -3.25786631250000 1.76475909062500 7.21831373437500 
 S -3.08117431250000 5.33512309062500 7.24324073437500 
