16

 C -2.85532375000000 1.28314461250000 5.77012780000000 
 C -3.02565375000000 4.64026461250000 5.49331380000000 
 C -4.08766875000000 1.10171861250000 5.10826080000000 
 C -4.25383975000000 4.35125461250000 4.74313880000000 
 N -1.76542875000000 1.22619961250000 4.93111080000000 
 N -1.84776275000000 4.69503361250000 4.86358680000000 
 N -4.01185975000000 1.06553761250000 3.75163280000000 
 N -3.94604975000000 4.19144261250000 3.45039680000000 
 N -4.84188875000000 1.60257361250000 7.48884680000000 
 N -5.03451375000000 4.88948061250000 7.14644780000000 
 S -5.50625475000000 1.25383161250000 5.99895480000000 
 S -5.74557975000000 4.34116461250000 5.83095980000000 
 S -2.46014075000000 1.08055661250000 3.40323980000000 
 S -2.28046575000000 4.39076061250000 3.28255280000000 
 S -3.12139075000000 1.57920261250000 7.51911780000000 
 S -3.35245975000000 5.08912661250000 7.16602380000000 
