16

 C -3.12767479375000 1.03749368437500 5.57196515000000 
 C -2.98542379375000 5.03408468437500 5.58290615000000 
 C -4.33933979375000 0.666351684375001 4.86008615000000 
 C -4.19540079375000 4.57631168437500 4.91545415000000 
 N -2.04275379375000 1.21958268437500 4.83957715000000 
 N -1.93280479375000 5.28324368437500 4.81892415000000 
 N -4.08186379375000 0.426383684375001 3.57498515000000 
 N -3.97824179375000 4.35967268437500 3.60534615000000 
 N -5.01797979375000 1.04176768437500 7.34080015000000 
 N -4.67868579375000 4.76082668437500 7.48739315000000 
 S -5.75949979375000 0.482180684375001 5.97435515000000 
 S -5.45840979375000 4.29699768437500 6.09710415000000 
 S -2.42879479375000 0.843068684375001 3.26410315000000 
 S -2.37974879375000 4.90872568437500 3.27439815000000 
 S -3.40395879375000 1.27303968437500 7.26720115000000 
 S -3.15698479375000 5.35502568437500 7.31652415000000 
