16

 C -2.99556564062500 1.75212290937500 5.57179320312500 
 C -3.10012864062500 5.37918690937500 5.55029220312500 
 C -4.13724564062500 1.06872890937500 4.96500620312500 
 C -4.31178764062500 4.85153190937500 5.00005320312500 
 N -1.90442364062500 1.85538990937500 4.78511820312500 
 N -2.05340764062500 5.51868690937500 4.75074320312500 
 N -3.86846864062500 0.634812909374996 3.71970720312500 
 N -4.12225364062500 4.53025490937500 3.72546520312500 
 N -4.76841164062500 1.43343690937500 7.51908420312500 
 N -4.85667064062500 5.33744590937500 7.49932220312500 
 S -5.44868164062500 0.775412909374995 6.19417220312500 
 S -5.69594564062500 4.95508490937500 6.07244320312500 
 S -2.35355064062500 1.20909190937500 3.31656420312500 
 S -2.62509864062500 4.99297490937500 3.30195020312500 
 S -3.25226464062500 2.12702390937500 7.31648320312500 
 S -3.22737864062500 5.70176690937500 7.23863920312500 
