16

 C -3.38876979687500 1.41155392812500 5.41060536875000 
 C -3.15424879687500 4.90346392812500 4.96866136875000 
 C -4.44207779687500 0.641907928124996 4.79820836875000 
 C -4.32973779687500 4.44696892812500 4.27383636875000 
 N -2.42802979687500 1.85450692812500 4.56740836875000 
 N -2.11759679687500 5.16483692812500 4.18426836875000 
 N -4.22420579687500 0.292032928124996 3.52090636875000 
 N -4.24986179687500 4.45689292812500 2.95801836875000 
 N -5.15526179687500 0.782111928124996 7.28229236875000 
 N -4.90255179687500 4.57494592812500 6.85360936875000 
 S -5.78031379687500 0.229183928124996 5.84318636875000 
 S -5.52960579687500 3.90300192812500 5.45866936875000 
 S -2.89603679687500 1.16500492812500 3.09892636875000 
 S -2.64495079687500 4.92863092812500 2.67554136875000 
 S -3.59265579687500 1.43702392812500 7.20355736875000 
 S -3.39327079687500 5.20062392812500 6.65097636875000 
