16

 C -2.91723047187500 1.46289675312500 5.66082625312500 
 C -3.05503847187500 5.00309575312500 5.34398825312500 
 C -4.17152947187500 0.832104753124998 5.07339825312500 
 C -4.27441947187500 4.43222175312500 4.78170325312500 
 N -1.94433247187500 1.55353275312500 4.75061625312500 
 N -2.05259647187500 4.90093475312500 4.49886325312500 
 N -4.06363147187500 0.415965753124998 3.83103025312500 
 N -4.22966047187500 4.13789975312500 3.50101325312500 
 N -4.65627047187500 1.38700375312500 7.41533025312500 
 N -4.90184147187500 5.14584575312500 7.13538125312500 
 S -5.48979647187500 0.751961753124998 6.15190125312500 
 S -5.65540047187500 4.43681075312500 5.79623125312500 
 S -2.53365347187500 0.812501753124998 3.35740725312500 
 S -2.66493147187500 4.28644575312500 3.06465525312500 
 S -3.04659647187500 1.85205875312500 7.32559325312500 
 S -3.22903747187500 5.37622375312500 6.98046525312500 
