16

 C -2.84188985000000 1.82051720312500 5.37096911875000 
 C -3.14511285000000 5.21059420312500 5.48004811875000 
 C -4.12712885000000 1.48434920312500 4.76223911875000 
 C -4.33369585000000 4.80509020312500 4.79503311875000 
 N -1.76638785000000 1.72367920312500 4.56472711875000 
 N -2.01939185000000 5.26745420312500 4.71712811875000 
 N -4.08756285000000 1.30575720312500 3.42478411875000 
 N -4.13185585000000 4.49786620312500 3.50812211875000 
 N -4.63576285000000 1.71505220312500 7.32117811875000 
 N -4.95864185000000 4.92873820312500 7.32128911875000 
 S -5.45285285000000 1.38166720312500 5.89537611875000 
 S -5.71024185000000 4.64979120312500 5.87677011875000 
 S -2.46820185000000 1.40612620312500 3.07624111875000 
 S -2.49246485000000 4.84744420312500 3.23567511875000 
 S -3.03057585000000 2.10631720312500 7.13677911875000 
 S -3.32968585000000 5.27179720312500 7.18313511875000 
