16

 C -3.31127544062500 1.12762759375000 5.70114509375000 
 C -2.90627444062500 5.08111059375000 5.53834609375000 
 C -4.45397444062500 0.598695593750000 5.00652809375000 
 C -4.03075144062500 4.46358859375000 4.88876009375000 
 N -2.31121744062500 1.41036659375000 4.89077109375000 
 N -1.88856944062500 5.27294559375000 4.72808909375000 
 N -4.27309944062500 0.454064593750000 3.69281509375000 
 N -3.98764544062500 4.38232759375000 3.56998809375000 
 N -5.11143444062500 0.687699593750001 7.45172809375000 
 N -4.70478744062500 4.65695859375000 7.44380209375000 
 S -5.84234944062500 0.358425593750000 5.97664509375000 
 S -5.37863844062500 4.35531359375000 5.90129009375000 
 S -2.69192544062500 0.854484593750001 3.36440009375000 
 S -2.49315844062500 4.90215859375000 3.14014409375000 
 S -3.47512044062500 1.17452059375000 7.42778509375000 
 S -3.10035544062500 5.24231559375000 7.28628409375000 
