16

 C -2.82487880937499 1.27383761562500 5.31810203750000 
 C -3.18944380937499 4.94985361562500 5.42949103750000 
 C -4.07297180937499 0.776274615624999 4.85463503750000 
 C -4.42043380937499 4.38762661562500 4.81957303750000 
 N -1.90701680937500 1.51669361562500 4.36240903750000 
 N -2.19406580937499 5.20764161562500 4.55615103750000 
 N -4.14040480937499 0.693116615624998 3.50869103750000 
 N -4.30690280937499 4.32920861562500 3.49518803750000 
 N -4.48467680937499 1.20282961562500 7.33055003750000 
 N -4.80277680937500 5.04700561562500 7.39629403750000 
 S -5.35910480937499 0.819138615624999 5.91867103750000 
 S -5.60563780937500 4.23984661562500 6.11838303750000 
 S -2.67941480937499 1.10112961562500 2.93291203750000 
 S -2.82413780937499 4.89578761562500 3.03444003750000 
 S -2.91802780937499 1.77935361562500 7.05328603750000 
 S -3.25081480937499 5.46623061562500 7.08744903750000 
