16

 C -2.94731164375001 1.47358055625000 5.64137631875000 
 C -3.01556864375001 5.29558455625000 5.36263931875000 
 C -4.22859364375001 1.00938855625000 5.10202131875000 
 C -4.22897664375001 4.84793955625000 4.75755831875000 
 N -2.09143464375001 1.69022055625000 4.66336431875000 
 N -1.92839564375001 5.54603055625000 4.57835531875000 
 N -4.35232564375001 0.850106556250003 3.79148831875000 
 N -4.12043564375001 4.75035055625000 3.40830331875000 
 N -4.69447364375001 1.25642755625000 7.62156931875000 
 N -4.54182464375001 4.83954855625000 7.41614331875000 
 S -5.53594464375001 0.872990556250002 6.25556831875000 
 S -5.45202664375001 4.63024455625000 5.99747431875000 
 S -2.84432264375001 1.18555655625000 3.21426231875000 
 S -2.53337064375001 5.22241155625000 3.10832131875000 
 S -3.06927664375001 1.62874255625000 7.44446431875000 
 S -3.02842664375001 5.43989855625000 7.05835131875000 
