16

 C -2.90711820312500 1.29571673437501 5.81532481875000 
 C -3.14176420312500 4.72761873437500 5.57272781875000 
 C -4.09151520312500 1.13166173437500 5.03622781875000 
 C -4.28105620312500 4.32292273437501 4.75214781875000 
 N -1.83692120312500 1.44830073437500 4.98945381875000 
 N -2.01416620312500 4.75588673437501 4.90850581875000 
 N -4.00610120312500 1.08278473437501 3.68246181875000 
 N -3.97389220312500 4.10194973437500 3.48489981875000 
 N -4.89094320312500 1.58675173437500 7.44748781875000 
 N -5.07815920312500 4.92942473437500 7.19307081875000 
 S -5.52782920312500 1.16844073437501 5.97805781875000 
 S -5.73150920312500 4.33755373437501 5.73631181875000 
 S -2.34063120312500 1.20066173437501 3.39959081875000 
 S -2.30483820312500 4.36102173437500 3.35189881875000 
 S -3.25084920312500 1.55118173437500 7.50350481875000 
 S -3.45517420312500 5.02173773437501 7.20265981875000 
