16

 C -3.16345592500000 1.22195650937500 5.58271009687500 
 C -3.07054292500000 5.04347050937500 5.61568109687500 
 C -4.41077492500000 0.835262509374997 4.98897609687500 
 C -4.29624992500000 4.63962650937500 4.97110709687500 
 N -2.13920292500000 1.37971450937500 4.77867809687500 
 N -2.08946592500000 5.36330250937500 4.77470209687500 
 N -4.29795492500000 0.582145509374998 3.72252909687500 
 N -4.21687292500000 4.51190550937500 3.65350009687500 
 N -4.97632692500000 1.14967950937500 7.41330709687500 
 N -4.81168292500000 4.65829050937500 7.43264409687500 
 S -5.70528692500000 0.541797509374997 6.05662109687500 
 S -5.61171092500000 4.36255550937500 6.00516209687500 
 S -2.78249992500000 1.07035950937500 3.27351609687500 
 S -2.72635692500000 5.03573250937500 3.19414209687500 
 S -3.33435592500000 1.48771750937500 7.23770909687500 
 S -3.21686492500000 5.18799850937500 7.34853309687500 
