16

 C -3.40163525937500 1.58584962500000 5.44893304687500 
 C -3.05997125937500 5.60733562500000 5.62150004687500 
 C -4.49985125937500 1.01097262500000 4.77029904687500 
 C -4.21974825937500 4.99262062500000 5.01667304687500 
 N -2.28935225937500 1.80667462500000 4.68167704687500 
 N -2.13989425937500 6.04837262500000 4.75917404687500 
 N -4.22820425937500 0.563652624999998 3.50962204687500 
 N -4.06717825937500 4.73827262500000 3.70011404687500 
 N -5.17496225937500 1.16296362500000 7.29056704687500 
 N -4.82240225937500 5.11897862500000 7.49102904687500 
 S -5.91135025937500 0.756738624999997 5.83729604687500 
 S -5.56235825937500 4.56642662500000 6.07828104687500 
 S -2.68768225937500 1.00631362500000 3.25736804687500 
 S -2.63293525937500 5.54888862500000 3.25414704687500 
 S -3.59374025937500 1.68171262500000 7.14892504687500 
 S -3.23251325937500 5.66452062500000 7.32919204687500 
