16

 C -3.12221603750001 1.14479799375000 5.73563754687500 
 C -2.78053503750001 4.65554399375000 5.46803254687500 
 C -4.45338103750001 0.887576993750001 5.26188854687500 
 C -4.06738203750001 4.46079999375000 4.84836254687500 
 N -2.17433203750001 0.936953993750000 4.85962754687500 
 N -1.80310603750001 4.80493399375000 4.58097554687500 
 N -4.46712303750001 0.592030993750001 3.95430854687500 
 N -4.06039403750001 4.44906599375000 3.49938754687500 
 N -4.52328003750001 1.74805599375000 7.82312754687500 
 N -4.61183703750001 4.64078299375000 7.29443854687500 
 S -5.64387403750001 1.38209399375000 6.54778854687500 
 S -5.46415503750001 4.59270799375000 5.86093454687500 
 S -2.91160803750001 0.608164993750000 3.45907254687500 
 S -2.54056803750001 4.75827899375000 3.02213454687500 
 S -2.90337703750001 1.73975799375000 7.27840954687500 
 S -3.05286603750001 4.85056799375000 7.25301954687500 
