16

 C -3.28568226562501 0.947474421874997 5.42683787500000 
 C -3.13599426562500 4.78361842187500 5.60021987500000 
 C -4.55040426562500 0.762452421874997 4.77975087500000 
 C -4.43253526562501 4.53003742187500 4.96427287500000 
 N -2.26649126562500 1.10518242187500 4.61653587500000 
 N -2.15136926562500 4.98957442187500 4.73884587500000 
 N -4.49097026562501 0.805857421874997 3.45659787500000 
 N -4.45234126562501 4.49019442187500 3.63377887500000 
 N -4.91771026562501 0.521740421874997 7.30394087500000 
 N -4.95836126562500 4.69384442187500 7.50034587500000 
 S -5.76749926562501 0.273504421874997 5.92668787500000 
 S -5.75328026562500 4.54201342187500 6.06677287500000 
 S -2.89850826562501 1.02826342187500 3.07458587500000 
 S -2.90511026562501 4.77094842187500 3.22756187500000 
 S -3.29664926562501 0.827060421874997 7.14949787500000 
 S -3.33766526562500 4.68741042187500 7.36257887500000 
