16

 C -3.30654431562500 1.37518735312500 5.55818524062500 
 C -2.93653831562500 5.24722535312500 5.44842824062500 
 C -4.43515931562500 0.671534353124996 4.99540024062500 
 C -4.17663731562500 4.92192935312500 4.79725624062500 
 N -2.32235831562500 1.66162835312500 4.73298324062500 
 N -1.88183031562500 5.37585335312500 4.63375924062500 
 N -4.31880431562500 0.428107353124996 3.72116724062500 
 N -4.12232731562500 4.84251335312500 3.49989224062500 
 N -5.10585831562500 1.24289035312500 7.38443324062500 
 N -4.68374631562500 5.11499135312500 7.35084924062500 
 S -5.68061831562500 0.333312353124996 6.16310024062500 
 S -5.47033431562500 4.70071435312500 5.97137524062500 
 S -2.82415231562500 1.02350435312500 3.23289024062500 
 S -2.56465231562500 5.06943135312500 3.06196424062500 
 S -3.56470131562500 1.85577735312500 7.17673124062500 
 S -3.11130831562500 5.39069535312500 7.17213924062500 
