16

 C -3.10872029062500 1.65429893437500 5.53449055312500 
 C -3.07747629062500 5.04263593437500 5.54026755312500 
 C -4.43037129062500 1.53948493437500 4.98009155312500 
 C -4.31160829062500 4.69300393437500 4.87478355312500 
 N -2.13509729062500 1.73261693437500 4.61798055312500 
 N -2.08398829062500 5.35726293437500 4.70718355312500 
 N -4.50627629062500 1.61804693437500 3.66093355312500 
 N -4.26063429062500 4.81614893437500 3.55052755312500 
 N -4.78636129062500 1.57358993437500 7.48893055312500 
 N -4.79333129062500 4.46082293437500 7.46083255312500 
 S -5.71935129062500 1.48550793437500 6.13359555312500 
 S -5.63997029062500 4.33073593437500 6.04071055312500 
 S -2.96081129062500 1.60728593437500 3.12281455312500 
 S -2.71736729062500 5.16113493437500 3.17650555312500 
 S -3.12513229062500 1.64441693437500 7.29476455312500 
 S -3.14065329062500 4.90297393437500 7.22946855312500 
