16

 C -3.02174367812500 0.955597550000001 5.49905568437500 
 C -3.00629667812500 5.04406755000000 5.54975568437500 
 C -4.18681867812500 0.591026550000001 4.75115268437500 
 C -4.29681167812500 4.80906855000000 4.92709368437500 
 N -1.93603867812500 1.10465855000000 4.73905168437500 
 N -2.00087667812500 4.94004355000000 4.68289068437500 
 N -4.06598267812500 0.472489550000001 3.40464468437500 
 N -4.27533567812500 4.58874455000000 3.63121468437500 
 N -5.01391067812500 1.06334655000000 7.15881468437500 
 N -4.85814167812500 5.11716355000000 7.38927068437500 
 S -5.63423067812500 0.457259550000002 5.74939168437500 
 S -5.63411867812500 4.84118755000000 5.93006968437500 
 S -2.40497367812500 0.765551550000001 3.18630768437500 
 S -2.65690867812500 4.68723055000000 3.20208768437500 
 S -3.39299667812500 1.34297255000000 7.18384868437500 
 S -3.23474567812500 5.33563155000000 7.23572668437500 
