16

 C -2.94164470000000 1.53071950937500 5.31998721250000 
 C -3.21231770000000 4.85930350937500 5.61474021250000 
 C -4.17305870000000 0.960683509375000 4.76728121250000 
 C -4.43766470000000 4.51236350937500 4.92502721250000 
 N -2.01466470000000 1.78751650937500 4.41248121250000 
 N -2.30316170000000 5.34279250937500 4.74905821250000 
 N -4.11176370000000 0.832055509375000 3.42737421250000 
 N -4.39764570000000 4.46042350937500 3.59312221250000 
 N -4.39529170000000 1.01298050937500 7.27835821250000 
 N -5.02064170000000 4.50419050937500 7.41626421250000 
 S -5.32266170000000 0.658968509375000 5.95190721250000 
 S -5.74642170000000 4.03893750937500 5.96367021250000 
 S -2.60655670000000 1.34871450937500 2.96054921250000 
 S -2.90421970000000 5.06752050937500 3.25104021250000 
 S -2.93190070000000 1.74545650937500 7.00960521250000 
 S -3.41794370000000 4.96202750937500 7.29715921250000 
