16

 C -3.24417171250000 1.18478324687500 5.89571817187500 
 C -2.95530471250000 4.59114524687500 5.37759417187500 
 C -4.35820371250000 0.685286246875000 5.18553717187500 
 C -4.26055571250000 4.54552524687500 4.77881917187500 
 N -2.18671671250000 1.55599824687500 5.15476717187500 
 N -2.02187071250000 4.84401824687500 4.45001217187500 
 N -4.28621471250000 0.710560246875000 3.85503917187500 
 N -4.30673571250000 4.46682224687500 3.44687517187500 
 N -4.92281271250000 0.465196246875000 7.70246817187500 
 N -4.60281271250000 4.55201424687500 7.33411217187500 
 S -5.67698671250000 0.249857246875000 6.23346817187500 
 S -5.52145171250000 4.47378024687500 5.92422317187500 
 S -2.74840871250000 1.26998724687500 3.61504717187500 
 S -2.74084971250000 4.70082824687500 2.94895117187500 
 S -3.45867571250000 1.24738824687500 7.62827217187500 
 S -3.01707371250000 4.80066824687500 7.04638717187500 
