16

 C -3.21583502500000 1.44035352187500 5.48715216875000 
 C -3.23926002500000 5.03515352187500 5.69463016875000 
 C -4.49308902500000 1.02985652187500 4.92404016875000 
 C -4.33699002500000 4.36691452187500 5.02900816875000 
 N -2.18349602500000 1.55326552187500 4.65593116875000 
 N -2.20514002500000 5.23913552187500 4.85246916875000 
 N -4.39400502500000 0.834187521875004 3.62793216875000 
 N -4.23728202500000 4.21197252187500 3.69661016875000 
 N -4.91320202500000 1.44398152187500 7.43231216875000 
 N -4.87455702500000 4.72163952187500 7.52223316875000 
 S -5.79104202500000 0.914655521875003 6.03260316875000 
 S -5.60744702500000 4.24367852187500 6.17028716875000 
 S -2.86855802500000 1.23625152187500 3.13044416875000 
 S -2.66757702500000 4.71071752187500 3.35614616875000 
 S -3.27245402500000 1.72525952187500 7.16071516875000 
 S -3.36851502500000 5.32711552187500 7.37690616875000 
