16

 C -3.09444246562500 1.49827564687500 5.56223959375000 
 C -3.31834146562500 5.15899164687500 5.21660459375000 
 C -4.28075346562500 1.05066464687500 4.76692859375000 
 C -4.38498746562500 4.40564864687500 4.62438759375000 
 N -1.95887346562500 1.58709464687500 4.89790359375000 
 N -2.19978846562500 5.17353764687500 4.47543259375000 
 N -3.96085546562500 0.813826646875002 3.50594859375000 
 N -4.16491446562500 3.89920464687500 3.41972659375000 
 N -5.05661246562500 1.21253364687500 7.23665959375000 
 N -5.35279346562500 5.30866964687500 6.81817359375000 
 S -5.71976746562500 0.884008646875002 5.69757159375000 
 S -5.76663646562500 4.26535564687500 5.60563359375000 
 S -2.33927246562500 1.20483764687500 3.35616159375000 
 S -2.56257146562500 4.40388764687500 3.03877859375000 
 S -3.41444446562500 1.64586964687500 7.26263659375000 
 S -3.75379346562500 5.74786164687500 6.84172359375000 
