16

 C -2.89499283750000 1.34679971562500 5.59717828125000 
 C -3.06862183750000 5.09730071562500 5.19460228125000 
 C -4.09282883750000 0.987871715624999 4.82317228125000 
 C -4.36932583750000 4.87924171562500 4.53364928125000 
 N -1.83461783750000 1.46857571562500 4.84266528125000 
 N -2.10543583750000 5.18510371562500 4.29111628125000 
 N -3.88740883750000 0.740411715625000 3.54161428125000 
 N -4.29353783750000 4.51629871562500 3.26862628125000 
 N -4.93511783750000 1.56184571562500 7.25325128125000 
 N -4.72196883750000 4.95975871562500 7.09023028125000 
 S -5.54735783750000 0.861281715625000 5.84464228125000 
 S -5.61242383750000 4.81116371562500 5.74646028125000 
 S -2.31398883750000 0.915621715625000 3.24462028125000 
 S -2.71914683750000 4.80637471562500 2.81215428125000 
 S -3.28406983750000 1.63415171562500 7.27286328125000 
 S -3.11830083750000 5.35176571562500 6.90394728125000 
