16

 C -3.36952596562500 1.46999504062500 5.44343181875000 
 C -3.05136596562500 5.17308604062500 5.88003481875000 
 C -4.61910596562500 1.16136004062500 4.77666181875000 
 C -4.33274296562500 4.93864404062500 5.31925981875000 
 N -2.28972996562500 1.58656104062500 4.68441181875000 
 N -2.10150896562500 5.21936504062500 4.92906181875000 
 N -4.41250496562500 1.13201204062500 3.46177981875000 
 N -4.39618796562500 4.83698604062500 3.97369781875000 
 N -5.05077096562500 1.13289704062500 7.35945281875000 
 N -4.75100296562500 5.11158404062500 7.86946581875000 
 S -5.88445796562500 0.737322040625004 5.95259081875000 
 S -5.59755596562500 5.02256904062500 6.38498181875000 
 S -2.83328796562500 1.56890904062500 3.17311781875000 
 S -2.83116996562500 5.04593004062500 3.45585481875000 
 S -3.49517496562500 1.64806304062500 7.19414281875000 
 S -3.13890796562500 5.36709204062500 7.61750281875000 
