16

 C -3.36855924062500 1.56574585937500 5.42785389375000 
 C -3.05648824062500 5.55672785937500 5.63133289375000 
 C -4.50533024062500 1.00436485937500 4.77954889375000 
 C -4.22902424062500 5.01463785937500 5.01542989375000 
 N -2.30797824062500 1.82908585937500 4.68735989375000 
 N -2.13840424062500 6.02952485937500 4.76105289375000 
 N -4.23297324062500 0.610505859375000 3.51702889375000 
 N -4.06673324062500 4.74761485937500 3.69284989375000 
 N -5.17730424062500 1.17155485937500 7.27750189375000 
 N -4.83629324062500 5.11157485937500 7.49960989375000 
 S -5.93003624062500 0.746808859375000 5.83098589375000 
 S -5.56870024062500 4.57053485937500 6.08966089375000 
 S -2.67293124062500 1.01096585937500 3.23557489375000 
 S -2.65371824062500 5.54322985937500 3.25700689375000 
 S -3.60924324062500 1.71976485937500 7.15336889375000 
 S -3.20943524062500 5.65936485937500 7.31731589375000 
