16

 C -2.96711513125000 1.40088289687500 5.71079758437500 
 C -3.17870013125000 4.74916289687500 5.56824958437500 
 C -4.18374213125000 1.16487189687500 4.96278958437500 
 C -4.29335913125000 4.37855489687500 4.79206058437500 
 N -1.85301013125000 1.49876789687500 5.00839958437500 
 N -2.00781213125000 4.82757289687500 4.91151458437500 
 N -3.88105513125000 1.02711489687500 3.66916458437500 
 N -3.98759113125000 4.05103089687500 3.53288658437500 
 N -4.89253313125000 1.46273689687500 7.41759258437500 
 N -5.20276213125000 4.84461189687500 7.15460758437500 
 S -5.61587213125000 1.14499389687500 6.01290958437500 
 S -5.71186213125000 4.36195089687500 5.65911858437500 
 S -2.30075213125000 1.28233989687500 3.44910458437500 
 S -2.39308813125000 4.34265989687500 3.37757358437500 
 S -3.29196713125000 1.55554489687500 7.46033958437500 
 S -3.48703513125000 5.00731989687500 7.27443158437500 
