16

 C -3.23528728750000 0.970695209374999 5.41809091875000 
 C -3.16388428750000 4.73589220937500 5.60622891875000 
 C -4.55925928750000 0.748694209374999 4.79220591875000 
 C -4.43640128750000 4.52805020937500 4.96528091875000 
 N -2.21636228750000 1.10714820937500 4.58702391875000 
 N -2.14993628750000 4.91772820937500 4.70767491875000 
 N -4.52664928750000 0.781824209374999 3.46911091875000 
 N -4.49249028750000 4.51958920937500 3.63267791875000 
 N -4.91494728750000 0.499381209374999 7.30206191875000 
 N -4.94004828750000 4.69793620937500 7.50005591875000 
 S -5.76362028750000 0.258059209374999 5.92218491875000 
 S -5.75693328750000 4.55843220937500 6.09038591875000 
 S -2.91388128750000 1.05069420937500 3.08089591875000 
 S -2.87937128750000 4.75930320937500 3.22656791875000 
 S -3.29068728750000 0.836734209374999 7.16072091875000 
 S -3.32521728750000 4.68910320937500 7.35856991875000 
