16

 C -3.30012285625000 1.09908422812500 5.95975141250000 
 C -2.91465185625000 4.77960322812500 5.29363941250000 
 C -4.44929085625000 0.668573228125000 5.19407541250000 
 C -4.21142285625000 4.42770022812500 4.70064641250000 
 N -2.27557185625000 1.47121822812500 5.20702941250000 
 N -1.90087885625000 4.84027622812500 4.37452541250000 
 N -4.22812085625000 0.686459228125000 3.88012341250000 
 N -4.20340985625000 4.47299822812500 3.35915941250000 
 N -5.00315185625000 0.472766228125000 7.72992641250000 
 N -4.72929185625000 4.57166622812500 7.19665941250000 
 S -5.83808685625000 0.342674228125000 6.25413841250000 
 S -5.59442585625000 4.54267122812500 5.80710941250000 
 S -2.67684685625000 1.29929522812500 3.61489741250000 
 S -2.65993085625000 4.74323822812500 2.88415841250000 
 S -3.54452885625000 1.32344322812500 7.69247141250000 
 S -3.06419785625000 4.87523822812500 7.07664541250000 
