16

 C -3.29625422500000 1.07935481250000 5.52909184375000 
 C -3.19548722500000 5.37246981250000 5.77622484375000 
 C -4.49022922500000 0.665720812500000 4.84381184375000 
 C -4.31550622500000 4.85753681250000 5.04818584375000 
 N -2.28976822500000 1.47372281250000 4.72035684375000 
 N -2.28937122500000 5.91726681250000 4.94631584375000 
 N -4.43327622500000 0.606455812500000 3.52084384375000 
 N -4.19849022500000 4.75733281250000 3.70179984375000 
 N -5.01047122500000 0.742547812500000 7.33346884375000 
 N -4.81711722500000 4.62540181250000 7.62095284375000 
 S -5.77530222500000 0.492632812500000 5.91618484375000 
 S -5.57940022500000 4.38183181250000 6.10579184375000 
 S -2.93334322500000 1.15817681250000 3.18946584375000 
 S -2.67472122500000 5.53020981250000 3.40779184375000 
 S -3.40042822500000 1.24340881250000 7.27359284375000 
 S -3.29980422500000 5.33325081250000 7.51942284375000 
