16

 C -2.97045369375000 1.41817011250000 5.32016124062499 
 C -3.20577469375000 4.84213111250000 5.54378324062499 
 C -4.17041469375000 0.963667112500000 4.75285624062499 
 C -4.44831769375000 4.41918511250000 4.92880224062499 
 N -2.08382669375000 1.71870411250000 4.42368824062499 
 N -2.27976369375000 5.35520511250000 4.73702824062499 
 N -4.15074869375000 0.812046112499999 3.47048624062499 
 N -4.37485069375000 4.46524511250000 3.61234424062499 
 N -4.46337869375000 0.998589112499999 7.28546024062499 
 N -4.99649669375000 4.50459611250000 7.41698024062499 
 S -5.37922669375000 0.690623112500000 5.92245324062499 
 S -5.77991169375000 4.04765011250000 5.97655624062499 
 S -2.65029869375000 1.35555611250000 2.91668724062499 
 S -2.90860769375000 5.07013211250000 3.21980524062499 
 S -2.99856569375000 1.76193511250000 7.05735724062499 
 S -3.41997369375000 4.98284311250000 7.28862124062499 
