16

 C -3.11056567500000 1.51066660312500 5.57920256250000 
 C -3.31309567500000 5.17575860312500 5.20046656250000 
 C -4.26689267500000 1.04021560312500 4.79558756250000 
 C -4.39555767500000 4.41382560312500 4.63200656250000 
 N -1.98278467500000 1.56790860312500 4.89398656250000 
 N -2.18577667500000 5.16263460312500 4.47210456250000 
 N -3.97758867500000 0.838140603125003 3.53015556250000 
 N -4.16419867500000 3.91218360312500 3.42598956250000 
 N -5.03057567500000 1.20481960312500 7.22014556250000 
 N -5.36262067500000 5.29874460312500 6.83691856250000 
 S -5.70657967500000 0.870235603125003 5.68513656250000 
 S -5.75533867500000 4.22716160312500 5.60259156250000 
 S -2.32323167500000 1.19824360312500 3.33725056250000 
 S -2.56209767500000 4.39961760312500 3.02262156250000 
 S -3.41604067500000 1.64630860312500 7.25716756250000 
 S -3.76328467500000 5.76953960312500 6.82759456250000 
