16

 C -2.89472675625000 1.72181692812500 5.73446118437500 
 C -3.33432175625000 5.38179092812500 5.35917618437500 
 C -4.14661275625000 1.49096592812500 5.14212918437500 
 C -4.56298775625000 4.91812992812500 4.75688318437500 
 N -1.88313075625000 1.86794592812500 4.90983118437500 
 N -2.30213475625000 5.59931092812500 4.56069318437500 
 N -4.09724675625000 1.53729892812500 3.82396718437500 
 N -4.50096075625000 4.86311292812500 3.44048718437500 
 N -4.69500475625000 1.66316592812500 7.63625018437500 
 N -4.98248075625000 5.08741692812500 7.33580918437500 
 S -5.46889475625000 1.42785492812500 6.18912218437500 
 S -5.71588775625000 4.47219692812500 6.02345518437500 
 S -2.54639475625000 1.71637892812500 3.32585118437500 
 S -2.97675275625000 5.34277592812500 3.00856618437500 
 S -3.01048075625000 1.74158992812500 7.46040518437500 
 S -3.43974875625000 5.72939992812500 7.04638918437500 
