16

 C -3.52328880625000 1.74314540625000 5.36666555937500 
 C -3.24976280625000 5.00711340625000 5.71488155937500 
 C -4.63414480625000 1.16946040625000 4.63496155937500 
 C -4.49048780625000 4.86585440625000 5.00729055937500 
 N -2.48553580625000 2.04356740625000 4.63304755937500 
 N -2.21494280625000 5.21493440625000 4.86216555937500 
 N -4.34343680625000 0.925185406250002 3.34378955937500 
 N -4.35955680625000 4.68141640625000 3.66721955937500 
 N -5.40732980625000 1.40442240625000 7.07615955937500 
 N -4.94081180625000 5.02701840625000 7.60165555937500 
 S -5.91871380625000 0.771263406250001 5.66195155937500 
 S -5.76970380625000 4.74287940625000 6.15574555937500 
 S -2.77614480625000 1.56268440625000 3.07455255937500 
 S -2.79063180625000 4.88677040625000 3.35206955937500 
 S -3.82500980625000 1.91969640625000 7.08030755937500 
 S -3.28107080625000 5.25893240625000 7.39863355937500 
