16

 C -3.11408134375000 1.62798527500000 5.45523808437500 
 C -2.95760034375000 5.05231727500000 5.38199708437500 
 C -4.36818634375000 1.11905527500000 4.92850008437500 
 C -4.23474234375000 4.66157427500000 4.87406808437500 
 N -2.06906034375000 1.64912927500000 4.62491208437500 
 N -1.89333334375000 4.87362827500000 4.54865208437500 
 N -4.31637234375000 0.854101275000000 3.64848808437500 
 N -4.21134734375000 4.36446727500000 3.56394908437500 
 N -4.82968734375000 1.43611327500000 7.37155408437500 
 N -4.70830734375000 5.12611527500000 7.34401708437500 
 S -5.66938634375000 0.822674275000000 6.03671108437500 
 S -5.53699434375000 4.92126327500000 5.88377508437500 
 S -2.79196534375000 1.22924527500000 3.17709808437500 
 S -2.58754834375000 4.46577627500000 3.11748508437500 
 S -3.26506534375000 1.80141027500000 7.18345208437500 
 S -3.03894734375000 5.28203327500000 7.11338108437500 
