16

 C -3.14687085312500 1.71514036562500 5.75733592187500 
 C -3.12075885312500 5.27928236562500 5.88619292187500 
 C -4.26002185312500 1.03846536562500 5.10190292187500 
 C -4.28527585312500 4.65389036562500 5.30968792187500 
 N -2.15331185312500 1.95414236562500 4.89453092187500 
 N -2.15130985312500 5.55523436562500 5.05330092187500 
 N -4.17605685312500 0.773787365625003 3.78096292187500 
 N -4.12746385312500 4.50848036562500 3.95778692187500 
 N -5.05712085312500 1.10232736562500 7.43103092187500 
 N -4.66855085312500 4.88653936562500 7.90219792187500 
 S -5.68263785312500 0.647346365625003 5.96931892187500 
 S -5.64014685312500 4.46463536562500 6.47382692187500 
 S -2.72273285312500 1.45266836562500 3.33280092187500 
 S -2.59477685312500 5.07783236562500 3.54911492187500 
 S -3.56772385312500 1.88095936562500 7.48261892187500 
 S -3.17315585312500 5.60591636562500 7.56148692187500 
