16

 C -3.18817192500000 1.71385966875000 5.40156032187500 
 C -3.08285992500000 4.96042366875000 5.57559532187500 
 C -4.40509992500000 1.32153566875000 4.76461432187500 
 C -4.25952092500000 4.55978066875000 4.87656632187500 
 N -2.12544092500000 1.85850866875000 4.57599032187500 
 N -2.05343792500000 5.15244866875000 4.75320232187500 
 N -4.31226092500000 1.26566066875000 3.45152132187500 
 N -4.16878692500000 4.40432966875000 3.57161732187500 
 N -4.97309992500000 1.13936266875000 7.21015232187500 
 N -4.89819492500000 4.69364366875000 7.48335832187500 
 S -5.75310092500000 0.922086668750000 5.79092532187500 
 S -5.57433692500000 4.52430566875000 5.94729632187500 
 S -2.75086092500000 1.61500566875000 3.06656132187500 
 S -2.60635892500000 4.77113166875000 3.22837632187500 
 S -3.34446592500000 1.70165166875000 7.16031232187500 
 S -3.32654192500000 5.28533166875000 7.31247532187500 
