16

 C -3.20557935312500 1.27871486562500 5.40136632187500 
 C -3.04977435312500 4.86309986562500 5.53303332187500 
 C -4.34465635312500 0.710066865625002 4.67696632187500 
 C -4.26551535312500 4.39789786562500 4.86636032187500 
 N -2.14804335312500 1.50096486562500 4.63726432187500 
 N -1.97118435312500 4.80712886562500 4.73892332187500 
 N -4.12322435312500 0.454938865625002 3.39123532187500 
 N -4.15985435312500 4.08669486562500 3.57920732187500 
 N -5.06604735312500 1.04190586562500 7.16829832187500 
 N -4.91335835312500 5.01603486562500 7.26791332187500 
 S -5.69271735312500 0.396963865625002 5.75584432187500 
 S -5.68173735312500 4.46202686562500 5.89543432187500 
 S -2.55422635312500 1.00604486562500 3.09638732187500 
 S -2.53842035312500 4.38419986562500 3.24942332187500 
 S -3.50856735312500 1.70438786562500 7.06308932187500 
 S -3.30432235312500 5.45858586562500 7.11606932187500 
