16

 C -3.11778814375000 1.30632865937500 5.42558932500000 
 C -2.88615214375000 5.20001165937500 5.88458832500000 
 C -4.30656614375000 0.860865659374999 4.76616132500000 
 C -4.03732814375000 4.70709165937500 5.15758232500000 
 N -2.11690714375000 1.75349065937500 4.66704232500000 
 N -1.83045414375000 5.37014365937500 5.09317832500000 
 N -4.25927214375000 0.951568659374999 3.45712232500000 
 N -3.93096414375000 4.66360465937500 3.82494232500000 
 N -4.90101214375000 0.768450659375000 7.32697832500000 
 N -4.77293814375000 4.99001965937500 7.62153632500000 
 S -5.63314514375000 0.579729659374999 5.87405432500000 
 S -5.38904114375000 4.46023365937500 6.15398932500000 
 S -2.69743914375000 1.47776165937500 3.04738132500000 
 S -2.31318214375000 5.01562565937500 3.48892432500000 
 S -3.30539914375000 1.22100865937500 7.21922632500000 
 S -3.13498114375000 5.43450865937500 7.62517532500000 
