16

 C -2.89485988750000 2.09188503437500 5.43304135312500 
 C -3.07486388750000 5.16582003437500 5.41222835312500 
 C -4.11184988750000 1.59688703437500 4.81802835312500 
 C -4.25300888750000 4.83422403437500 4.70858035312500 
 N -1.91445488750000 2.32034303437500 4.57022435312500 
 N -2.01978988750000 5.36049503437500 4.61960835312500 
 N -3.99245588750000 1.26078303437500 3.51765935312500 
 N -4.09688888750000 4.80321603437500 3.37576335312500 
 N -4.61949388750000 1.84773103437500 7.36164435312500 
 N -4.95633288750000 5.04711803437500 7.12548635312500 
 S -5.41780888750000 1.43787903437500 5.95529835312500 
 S -5.65910488750000 4.55280503437500 5.71107635312500 
 S -2.41173588750000 1.81911803437500 3.11245635312500 
 S -2.51667888750000 5.23433503437500 3.03680335312500 
 S -3.04246788750000 2.25231603437500 7.17267435312500 
 S -3.30218588750000 5.32387303437500 7.11807535312500 
