16

 C -3.27694323750000 1.10332263437500 5.61931460312500 
 C -3.11906023750000 5.21097763437500 5.51809260312500 
 C -4.45630623750000 0.620068634374997 4.94046760312500 
 C -4.28986023750000 4.66359063437500 4.88552460312500 
 N -2.25596223750000 1.31505663437500 4.80279860312500 
 N -2.03193323750000 5.29961463437500 4.73427560312500 
 N -4.30800223750000 0.679005634374997 3.63517360312500 
 N -4.17588523750000 4.60430263437500 3.55608060312500 
 N -5.04591723750000 1.00541463437500 7.51606860312500 
 N -4.71247223750000 4.62679763437500 7.53129660312500 
 S -5.75411323750000 0.382380634374996 6.12501160312500 
 S -5.51990923750000 4.28188363437500 6.08991160312500 
 S -2.71194223750000 0.969786634374997 3.24922060312500 
 S -2.55409723750000 4.91740463437500 3.22599360312500 
 S -3.43624023750000 1.44640463437500 7.39410260312500 
 S -3.14824023750000 5.21385163437500 7.26179660312500 
