16

 C -3.24623170000000 0.862009771875000 5.46799260937500 
 C -3.37817070000000 5.06325977187500 5.52601260937500 
 C -4.48829370000000 0.626907771875000 4.78133160937500 
 C -4.50441770000000 4.60059377187500 4.81116060937500 
 N -2.22286370000000 1.07737277187500 4.63754360937500 
 N -2.32550170000000 5.38300377187500 4.74963160937500 
 N -4.42523570000000 0.578203771875000 3.45068760937500 
 N -4.34643970000000 4.53073877187500 3.49926260937500 
 N -5.12333570000000 0.697094771874999 7.27147360937500 
 N -4.99891370000000 4.44903177187500 7.38740460937500 
 S -5.87729070000000 0.553338771875000 5.76941460937500 
 S -5.78064070000000 4.24588477187500 5.94833860937500 
 S -2.84477170000000 0.979239771874999 3.11251760937500 
 S -2.73102870000000 5.00111277187500 3.20559160937500 
 S -3.44877470000000 0.836198771875000 7.20546160937500 
 S -3.49764770000000 5.18623477187500 7.19865960937500 
