16

 C -3.09267440937500 1.35790614687500 5.53123605625000 
 C -3.63067340937500 4.89319014687500 5.02431905625000 
 C -4.34589640937500 0.886799146875003 5.00382205625000 
 C -4.73499540937500 4.17165914687500 4.45075205625000 
 N -2.10656440937500 1.45271014687500 4.65212305625000 
 N -2.61337140937500 5.16443914687500 4.20588605625000 
 N -4.29631840937500 0.584893146875002 3.72732005625000 
 N -4.56656640937500 3.94350514687500 3.14720605625000 
 N -4.76535540937500 0.874329146875002 7.60111805625000 
 N -5.31874440937500 4.53172914687500 7.00866905625000 
 S -5.62742640937500 0.465618146875002 6.22618705625000 
 S -6.00131240937500 3.81776514687500 5.59913205625000 
 S -2.82754740937500 1.07036914687500 3.18037905625000 
 S -3.05802340937500 4.60163714687500 2.74247305625000 
 S -3.27486740937500 1.59341814687500 7.30957705625000 
 S -3.82185640937500 5.27200314687500 6.72755005625000 
