16

 C -3.66037906562500 1.30195813437499 5.72416137187500 
 C -3.08118706562500 5.01035413437499 5.32169037187500 
 C -4.75035206562500 0.797192134374995 4.90358837187500 
 C -4.34782206562500 4.52010613437499 4.87005337187500 
 N -2.53374806562500 1.59361213437499 5.06710537187500 
 N -2.16959506562500 5.24586813437499 4.35635437187500 
 N -4.42044506562500 0.710039134374995 3.61114637187500 
 N -4.34262506562500 4.27364713437500 3.55775237187500 
 N -5.69357706562500 0.738488134374994 7.40703137187500 
 N -4.80974606562500 4.90471413437499 7.35606337187500 
 S -6.17363706562500 0.417028134374995 5.84859937187500 
 S -5.65461806562500 4.38040013437499 5.97900937187500 
 S -2.83109006562500 1.12120813437499 3.48714037187500 
 S -2.86422006562500 4.64647913437499 2.96263537187500 
 S -4.15822506562500 1.29518513437499 7.51829737187500 
 S -3.28421606562500 5.46702213437499 7.04582037187500 
