16

 C -3.21313220937500 1.33931702500000 5.29960899375000 
 C -3.10128320937500 5.00179102500000 5.38661399375000 
 C -4.48880520937500 0.928357025000001 4.70842399375000 
 C -4.36328520937500 5.03796502500000 4.65891399375000 
 N -2.26457620937500 1.67640802500000 4.40411599375000 
 N -2.05186120937500 5.14474802500000 4.61121399375000 
 N -4.41323620937500 0.839047025000002 3.39584999375000 
 N -4.29591620937500 5.20570602500000 3.36108299375000 
 N -5.03211120937500 1.22868802500000 7.18367299375000 
 N -4.85844620937500 4.75089002500000 7.21579699375000 
 S -5.81172520937500 0.683111025000001 5.86585799375000 
 S -5.71797220937500 4.90852902500000 5.79890199375000 
 S -2.83581320937500 1.25293502500000 2.90510399375000 
 S -2.63383520937500 5.30498402500000 3.09115799375000 
 S -3.40484220937500 1.55695302500000 6.97649599375000 
 S -3.26347020937500 4.97838002500000 7.09449099375000 
