16

 C -2.85552110937500 1.96892601250000 5.37553546875000 
 C -3.02176210937500 5.12729301250000 5.48178846875000 
 C -4.08111110937500 1.44368901250000 4.76397746875000 
 C -4.26107710937500 4.93265201250000 4.75064946875000 
 N -1.83539110937500 2.18340601250000 4.52784746875000 
 N -1.98478510937500 5.15949101250000 4.66048346875000 
 N -3.98939410937500 1.18418501250000 3.45303946875000 
 N -4.13618110937500 4.88836601250000 3.44214746875000 
 N -4.60206010937500 1.79984901250000 7.32828146875000 
 N -4.96498910937500 4.90396001250000 7.22021646875000 
 S -5.44481310937500 1.43632601250000 5.90315346875000 
 S -5.61109910937500 4.55453201250000 5.74627946875000 
 S -2.41916810937500 1.67336601250000 3.08791546875000 
 S -2.49309810937500 4.96379201250000 3.13462946875000 
 S -3.00832310937500 2.29530801250000 7.10239246875000 
 S -3.35064210937500 5.31663701250000 7.19730946875000 
