16

 C -2.89954185312500 1.69864257812500 5.46213446875000 
 C -3.22315885312500 5.08282557812500 5.67593346875000 
 C -4.13928385312500 1.27705957812500 4.91210346875000 
 C -4.43755485312500 4.67552557812500 5.01616546875000 
 N -1.96533385312500 1.93372257812500 4.56020446875000 
 N -2.21375985312500 5.33835357812500 4.85847046875000 
 N -4.13467285312500 1.18445557812500 3.58553346875000 
 N -4.31729785312500 4.48694557812500 3.69617746875000 
 N -4.48625585312500 1.79184857812500 7.43737146875000 
 N -4.95422485312500 4.94776457812500 7.54585346875000 
 S -5.39668085312500 1.40044857812500 6.10935346875000 
 S -5.72431885312500 4.60849457812500 6.14090646875000 
 S -2.58888885312500 1.50194957812500 3.07299946875000 
 S -2.77136385312500 4.96718157812500 3.28546446875000 
 S -2.87517885312500 1.99051557812500 7.20431146875000 
 S -3.32276285312500 5.25626357812500 7.39845446875000 
