16

 C -3.24481638437500 1.64072118750001 5.44565270937500 
 C -3.02532538437500 5.26742918750000 5.80713870937500 
 C -4.33372038437500 0.958221187500005 4.80292470937500 
 C -4.28845438437500 4.87158218750000 5.26657670937500 
 N -2.27439138437500 1.98132818750001 4.61820770937500 
 N -2.07139638437500 5.58009918750001 4.94097670937500 
 N -4.15768538437500 0.775063187500006 3.50965070937500 
 N -4.21410438437500 4.75760718750000 3.90186870937500 
 N -4.99585238437500 0.964272187500006 7.29477370937500 
 N -4.58521238437500 5.06946018750001 7.76156570937500 
 S -5.58500238437500 0.334064187500005 5.83429270937500 
 S -5.56158338437500 4.67289118750000 6.50370170937500 
 S -2.71445438437500 1.45212818750000 3.08948970937500 
 S -2.69059038437500 5.18228418750001 3.43770270937500 
 S -3.40815838437500 1.62370118750001 7.18163070937500 
 S -3.01663138437500 5.44327918750001 7.52332170937500 
