16

 C -3.18252023437500 1.20752050937500 5.42887882812500 
 C -2.93660223437500 5.23253250937500 5.54529782812500 
 C -4.23649623437500 0.610230509375002 4.66505382812500 
 C -4.22908723437500 4.98901950937500 4.98251582812500 
 N -2.17214823437500 1.65677650937500 4.65146282812500 
 N -1.94364723437500 5.31458250937500 4.63820882812500 
 N -4.07213623437500 0.694542509375003 3.30978682812500 
 N -4.26983223437500 4.84005550937500 3.69519082812500 
 N -4.92207023437500 0.842698509375001 7.17117882812500 
 N -4.62667923437500 4.96980350937500 7.55453482812500 
 S -5.59980823437500 0.374893509375002 5.77123282812500 
 S -5.45961723437500 4.95168550937500 6.18119382812500 
 S -2.57086423437500 1.33787950937500 3.07875182812500 
 S -2.73767423437500 4.99616450937500 3.18186982812500 
 S -3.37177923437500 1.48594250937500 7.07579582812500 
 S -3.03660723437500 5.39576650937500 7.28696082812500 
