16

 C -3.26546205937500 1.10653828750000 5.60360657812500 
 C -3.12004905937500 5.18773728750000 5.52879657812500 
 C -4.43921505937500 0.621188287499999 4.93707957812500 
 C -4.30470805937500 4.66974728750000 4.89076157812500 
 N -2.23691805937500 1.32953228750000 4.80250957812500 
 N -2.05040005937500 5.30491628750000 4.71838257812500 
 N -4.32597405937500 0.686014287499999 3.62239657812500 
 N -4.18988605937500 4.59229128750000 3.55139857812500 
 N -5.02684105937500 1.03500028750000 7.50162157812500 
 N -4.71295905937500 4.62977828750000 7.51419857812500 
 S -5.75365405937500 0.393737287500000 6.12509257812500 
 S -5.51886505937500 4.29239228750000 6.09024057812500 
 S -2.71891105937500 0.976470287500000 3.25750157812500 
 S -2.56659705937500 4.93023928750000 3.23593457812500 
 S -3.42940805937500 1.45455928750000 7.38939657812500 
 S -3.16380705937500 5.20957128750000 7.27806657812500 
