16

 C -3.16778355625000 1.41692778437500 5.53053684375000 
 C -3.24873155625000 5.26159178437500 5.49831684375000 
 C -4.32907155625000 0.880562784375004 4.82109584375000 
 C -4.33996155625000 4.65334578437500 4.74209084375000 
 N -2.15617855625000 1.65599578437500 4.69687584375000 
 N -2.14758755625000 5.48598478437500 4.76680984375000 
 N -4.13476055625000 0.625255784375004 3.56250884375000 
 N -4.00110455625000 4.45542378437500 3.48914584375000 
 N -5.02213755625000 0.847790784375003 7.27002684375000 
 N -5.12872455625000 5.08513478437500 7.16936084375000 
 S -5.65406855625000 0.406960784375003 5.77907684375000 
 S -5.66827155625000 4.18891878437500 5.85533484375000 
 S -2.72537255625000 1.23015178437500 3.17692184375000 
 S -2.45635555625000 4.92951678437500 3.24243384375000 
 S -3.47334155625000 1.46105578437500 7.30309084375000 
 S -3.60537955625000 5.58315178437500 7.11671884375000 
