16

 C -2.98817124062500 1.91031675625000 5.42005855000000 
 C -3.64504824062500 5.19744375625000 5.52293255000000 
 C -4.02250324062500 1.15224675625000 4.79351255000000 
 C -4.73115024062500 4.51384775625000 4.89173555000000 
 N -1.93223624062500 2.21262575625000 4.61689155000000 
 N -2.64345224062500 5.56407575625000 4.75307855000000 
 N -3.84774824062500 0.916527756249998 3.48293055000000 
 N -4.46499424062500 4.23821475625000 3.61509955000000 
 N -4.62468324062500 1.04103775625000 7.25620955000000 
 N -5.26368324062500 4.75543175625000 7.39591055000000 
 S -5.24889924062500 0.461136756249998 5.81513755000000 
 S -5.84855324062500 3.94532275625000 6.00907855000000 
 S -2.35919024062500 1.47604275625000 3.15752155000000 
 S -3.04069524062500 4.99742775625000 3.23994855000000 
 S -3.17473124062500 1.86644975625000 7.15823955000000 
 S -3.76219624062500 5.42757075625000 7.24929255000000 
