16

 C -2.88700068125000 2.10275675625001 5.43753698437500 
 C -3.07794768125000 5.17321375625001 5.39146298437500 
 C -4.10240168125000 1.61412175625001 4.80648298437500 
 C -4.26968268125000 4.81166975625001 4.68915998437500 
 N -1.88617468125000 2.32045775625001 4.58687498437500 
 N -2.05230868125000 5.42607875625001 4.59449998437500 
 N -4.01630968125000 1.27655375625001 3.50598098437500 
 N -4.09872368125000 4.77961975625001 3.35666198437500 
 N -4.62756968125000 1.83484375625001 7.37365198437500 
 N -4.93424968125000 5.06299275625001 7.13222698437500 
 S -5.42557568125000 1.42856875625001 5.94837698437500 
 S -5.67413868125000 4.55618575625001 5.70689798437500 
 S -2.43741168125000 1.82695075625001 3.13618598437500 
 S -2.51213968125000 5.25495675625001 3.03971698437500 
 S -3.03075268125000 2.25108475625001 7.19549798437500 
 S -3.29342468125000 5.32530175625001 7.11175098437500 
