16

 C -3.14609710625000 1.46213059375000 5.36785134375000 
 C -3.10675610625000 5.28630159375000 6.04484934375000 
 C -4.27334910625000 0.915571593749997 4.66362734375000 
 C -4.35760210625000 5.00025259375000 5.36409134375000 
 N -2.11796710625000 1.76645459375000 4.60567134375000 
 N -2.10198610625000 5.33470159375000 5.17638334375000 
 N -4.03267910625000 0.800260593749996 3.35061434375000 
 N -4.27250810625000 4.84974259375000 4.08556334375000 
 N -4.80946610625000 1.09434459375000 7.23533634375000 
 N -5.02724810625000 5.11838759375000 7.78938234375000 
 S -5.62163310625000 0.660158593749997 5.85081734375000 
 S -5.74735710625000 4.87558659375000 6.32566734375000 
 S -2.53456710625000 1.43838259375000 3.06822734375000 
 S -2.72562210625000 5.08606059375000 3.63254734375000 
 S -3.23460610625000 1.52883059375000 7.05959134375000 
 S -3.42594710625000 5.46832359375000 7.78196034375000 
