16

 C -3.02253595937500 1.26441425625000 5.65774187500000 
 C -3.07372695937500 5.14003625625000 5.36831187500000 
 C -4.22765095937500 0.811032256250000 4.95414987500000 
 C -4.16922095937500 4.31816725625000 4.93513287500000 
 N -1.99751895937500 1.38633425625000 4.82950487500000 
 N -2.00919195937500 5.28437425625000 4.54430887500000 
 N -4.05016795937500 0.574457256250000 3.65058287500000 
 N -3.94252895937500 3.79181425625000 3.71624387500000 
 N -4.79843295937500 0.917113256250000 7.52850287500000 
 N -4.81829395937500 5.18139725625000 7.26112687500000 
 S -5.56800795937500 0.684272256250000 6.05891187500000 
 S -5.38655195937500 4.18462925625000 6.12157287500000 
 S -2.40569295937500 1.01794425625000 3.30603187500000 
 S -2.50079095937500 4.44604125625000 3.16169287500000 
 S -3.22027595937500 1.62092525625000 7.41330987500000 
 S -3.33813495937500 5.77570325625000 7.00602987500000 
