16

 C -3.22728219062500 1.18402385624999 5.58651086250000 
 C -3.29402719062500 4.95190385624999 5.56017486250000 
 C -4.42868419062500 0.869084856249994 4.88957986250000 
 C -4.45594719062500 4.45999885624999 4.89049786250000 
 N -2.18716919062500 1.41557085624999 4.80553786250000 
 N -2.30998019062500 5.19402885624999 4.66171586250000 
 N -4.30837719062500 0.926991856249994 3.51928486250000 
 N -4.40781019062500 4.46757485624999 3.58378486250000 
 N -4.96263119062500 1.26509585624999 7.45930086250000 
 N -5.27370219062500 4.75157985624999 7.26560286250000 
 S -5.74304519062500 0.879191856249993 6.01404186250000 
 S -5.79620119062500 4.11845285624999 5.87449186250000 
 S -2.64846919062500 1.19756485624999 3.28215686250000 
 S -2.89353719062500 4.94978685624999 3.12596586250000 
 S -3.29095619062500 1.60856285624999 7.20522886250000 
 S -3.63726919062500 5.11247785624999 7.32590586250000 
