16

 C -3.37013234687500 1.26475246250000 6.03354478750000 
 C -3.08215334687500 5.04674246250000 5.20680378750000 
 C -4.56254734687500 0.884523462499998 5.20145478750000 
 C -4.30665834687500 4.63267946250000 4.54927178750000 
 N -2.32803534687500 1.51559046250000 5.23587878750000 
 N -1.97527334687500 5.04858546250000 4.42304078750000 
 N -4.33785034687500 0.800679462499998 3.88624578750000 
 N -4.17528334687500 4.60701846250000 3.21243978750000 
 N -5.31191734687500 1.00407246250000 7.63707578750000 
 N -4.88686334687500 4.88298046250000 7.02782578750000 
 S -5.89422134687500 0.417616462499999 6.14215778750000 
 S -5.69820234687500 4.52660746250000 5.60911278750000 
 S -2.76522334687500 1.16653946250000 3.68485478750000 
 S -2.54869234687500 4.70655146250000 2.92395978750000 
 S -3.65657234687500 1.21147346250000 7.74909978750000 
 S -3.25919034687500 5.08512646250000 6.90604578750000 
