16

 C -3.24155982500000 1.58666481875000 5.45417020000000 
 C -2.97126582500000 5.15652781875000 5.59895720000000 
 C -4.48086582500000 1.07702581875000 4.90571420000000 
 C -4.17744182500000 4.61982181875000 5.00886120000000 
 N -2.24485982500000 1.75808681875000 4.56832820000000 
 N -1.95239182500000 5.15968181875000 4.70483420000000 
 N -4.44714482500000 0.927058818750002 3.60621320000000 
 N -4.12251982500000 4.44766781875000 3.66030620000000 
 N -4.85493882500000 1.33916281875000 7.46681620000000 
 N -4.76423482500000 5.09806681875000 7.53241720000000 
 S -5.76739182500000 0.923716818750002 6.17123420000000 
 S -5.58333782500000 4.71923281875000 6.10305520000000 
 S -2.96425982500000 1.42316681875000 3.06158520000000 
 S -2.51795282500000 4.68861281875000 3.23736620000000 
 S -3.24379782500000 1.74652781875000 7.18689820000000 
 S -3.13499682500000 5.36149581875000 7.25568820000000 
