16

 C -3.23808537500000 1.38766260625000 5.70043052812500 
 C -3.21824337500000 5.48550960625000 5.46722352812500 
 C -4.56221237500000 1.31037360625000 5.00363552812500 
 C -4.39691637500000 4.93749760625000 4.84837352812500 
 N -2.20085337500000 1.31780760625000 4.89659552812500 
 N -2.11722537500000 5.63073360625000 4.72375252812500 
 N -4.39923137500000 1.14244960625000 3.68107652812500 
 N -4.16502337500000 4.66646760625000 3.57451852812500 
 N -4.95629837500000 1.09017960625000 7.56551352812500 
 N -4.94847837500000 4.91300960625000 7.40610152812500 
 S -5.88142637500000 1.02303660625000 6.17516852812500 
 S -5.68268637500000 4.55969360625000 5.97126752812500 
 S -2.76682837500000 1.16356960625000 3.31556652812500 
 S -2.56957337500000 5.10037960625000 3.24844952812500 
 S -3.34896337500000 1.39086160625000 7.41503252812500 
 S -3.37933037500000 5.44000260625000 7.15866852812500 
