16

 C -3.12509601250000 1.42861110000000 5.43951420625000 
 C -3.01303401250000 5.09515709999999 5.49938320625000 
 C -4.42547801250000 1.36177810000000 4.79845920625000 
 C -4.28809201250000 4.91152109999999 4.84175420625000 
 N -2.10872501250000 1.67541810000000 4.60533920625000 
 N -2.01870701250000 5.42127710000000 4.67469620625000 
 N -4.35856401250000 1.43934110000000 3.47473820625000 
 N -4.22335501250000 5.01870110000000 3.51385420625000 
 N -4.87423601250000 1.41561009999999 7.31684120625000 
 N -4.70032701250000 4.84401009999999 7.39946020625000 
 S -5.78091001250000 1.31423710000000 5.86951720625000 
 S -5.58572601250000 4.56013610000000 6.04933520625000 
 S -2.75238301250000 1.61136610000000 3.10556320625000 
 S -2.62476401250000 5.27625410000000 3.14672120625000 
 S -3.22850401250000 1.62156310000000 7.14618020625000 
 S -3.10356101250000 5.05034610000000 7.20063120625000 
