16

 C -3.16454044687500 1.42396349687499 5.30646465000000 
 C -3.17529044687500 5.23915349687499 5.53486165000000 
 C -4.39885144687500 0.981836496874993 4.69152865000000 
 C -4.38040944687500 4.75807549687499 4.95336165000000 
 N -2.24079644687500 1.80571349687499 4.44936665000000 
 N -2.14838944687500 5.41947549687499 4.67668165000000 
 N -4.29463944687500 0.979993496874993 3.37759065000000 
 N -4.29272244687500 4.61304449687499 3.61915665000000 
 N -4.73456044687500 0.578507496874994 7.15139165000000 
 N -4.70989044687500 4.98442149687499 7.53811665000000 
 S -5.58152444687500 0.339256496874993 5.72315665000000 
 S -5.59161844687500 4.48974549687499 6.21597865000000 
 S -2.86589544687500 1.56403649687499 2.89284165000000 
 S -2.76169844687500 4.97563749687499 3.20415065000000 
 S -3.28298744687500 1.39699949687499 7.06963765000000 
 S -3.18765544687500 5.57460249687499 7.24928865000000 
