16

 C -3.00314228437500 1.28536220312500 5.65138435625000 
 C -3.10129628437500 5.06118420312500 5.53460935625000 
 C -4.25722428437500 0.797694203124996 4.99207935625000 
 C -4.24816228437500 4.42871020312500 4.90311635625000 
 N -1.96273828437500 1.32029120312500 4.79332635625000 
 N -2.07189628437500 5.20773920312500 4.70963035625000 
 N -4.11716628437500 0.351935203124996 3.72893735625000 
 N -4.01551328437500 3.99892820312500 3.67408935625000 
 N -4.81258028437500 1.19060620312500 7.45757935625000 
 N -4.84831628437500 4.88647220312500 7.45264035625000 
 S -5.56516328437500 0.685296203124996 6.06773435625000 
 S -5.60450928437500 4.34569720312500 6.05681235625000 
 S -2.54999428437500 0.722187203124996 3.39662535625000 
 S -2.43843728437500 4.50665920312500 3.27934435625000 
 S -3.23961428437500 1.62724720312500 7.34487335625000 
 S -3.30059228437500 5.34794820312500 7.21983635625000 
