16

 C -3.13667917187499 1.56948664062500 5.66167335000000 
 C -2.90501917187499 5.14586764062500 5.42944235000000 
 C -4.39441817187499 1.18607164062500 5.04683035000000 
 C -4.19564717187499 4.82037564062500 4.80310135000000 
 N -2.11246617187499 1.74186164062500 4.77603935000000 
 N -1.91270617187499 5.35958164062500 4.60735735000000 
 N -4.38595617187499 1.15210164062500 3.71378035000000 
 N -4.09785517187499 4.77502164062500 3.48257135000000 
 N -5.01656417187499 1.46083064062501 7.49587035000000 
 N -4.62827617187499 5.13522264062500 7.36595635000000 
 S -5.73790517187499 1.00320164062500 6.09560435000000 
 S -5.53266717187499 4.60143864062501 5.99778235000000 
 S -2.82836517187499 1.40428164062500 3.29694635000000 
 S -2.47868217187499 5.09620864062500 3.12175035000000 
 S -3.42783117187499 1.86699064062500 7.41474535000000 
 S -3.01501617187499 5.28767064062500 7.15470935000000 
