16

 C -2.89208445937500 1.26267365937500 5.67075891250000 
 C -2.91451845937500 4.86358065937500 5.40461291250000 
 C -4.26637845937500 1.17941165937500 5.13487291250000 
 C -4.18494145937500 4.61183665937500 4.77124391250000 
 N -1.94239845937500 1.08396565937500 4.81473291250000 
 N -1.83527445937500 4.83671265937500 4.63072591250000 
 N -4.27822845937500 0.845100659374999 3.85926791250000 
 N -3.97532145937500 4.34531565937500 3.47103291250000 
 N -4.51449845937500 1.49265365937500 7.62285391250000 
 N -4.77754145937500 4.83016165937500 7.29178891250000 
 S -5.47655545937500 1.47133165937500 6.31156991250000 
 S -5.57203745937500 4.46794365937500 5.79387591250000 
 S -2.67317145937500 0.615193659375000 3.38945191250000 
 S -2.33539245937500 4.40126765937500 3.09064491250000 
 S -2.90188345937500 1.56444965937500 7.43470091250000 
 S -3.10858745937500 4.95244065937500 7.15277391250000 
