16

 C -3.17696047812500 1.44769994062500 5.40994546562500 
 C -3.26445347812500 5.16578194062500 5.39827346562500 
 C -4.26120947812500 0.761913940625003 4.90931346562500 
 C -4.52710847812500 4.69995194062500 4.86957246562500 
 N -2.19651147812500 1.57039694062500 4.54164946562500 
 N -2.33462247812500 5.24292194062500 4.44367746562500 
 N -4.18891147812500 0.397717940625002 3.64444946562500 
 N -4.49453947812500 4.32807094062500 3.59407046562500 
 N -4.92768447812500 1.38766794062500 7.28749346562500 
 N -4.92571147812500 5.10708894062500 7.35855446562500 
 S -5.57052047812500 0.486273940625003 6.03427846562500 
 S -5.83755147812500 4.75784294062500 5.98736746562500 
 S -2.68030147812500 0.794846940625002 3.17519946562500 
 S -2.94589047812500 4.56371794062500 3.08601546562500 
 S -3.36350347812500 1.93032894062500 7.12135746562500 
 S -3.33606947812500 5.55448294062500 7.10518746562500 
