16

 C -3.22569019375000 1.31905965000000 5.43158625312500 
 C -3.18458619375000 5.39363865000000 5.78628525312500 
 C -4.42175119375000 0.775853649999999 4.76269825312500 
 C -4.33827819375000 5.10030065000000 4.96228625312500 
 N -2.25750919375000 1.68695065000000 4.57048325312500 
 N -2.09858119375000 5.55246865000000 5.03711325312500 
 N -4.27693219375000 0.659101649999999 3.45201225312500 
 N -4.15296119375000 5.03277065000000 3.65061425312500 
 N -5.14563919375000 1.19396065000000 7.16246825312500 
 N -5.08917119375000 5.23609465000000 7.40901525312500 
 S -5.78772319375000 0.363508649999999 5.84409325312500 
 S -5.72356619375000 5.07721065000000 5.92044225312500 
 S -2.75931419375000 1.18523665000000 3.06140025312500 
 S -2.55419619375000 5.32568565000000 3.44798125312500 
 S -3.54520219375000 1.47373365000000 7.17896125312500 
 S -3.47122819375000 5.52700965000000 7.51730525312500 
