16

 C -3.23983085312500 1.57925877187500 5.46162553750000 
 C -2.97064085312500 5.14986077187500 5.59768453750000 
 C -4.47649385312500 1.07111177187500 4.90440553750000 
 C -4.18484785312500 4.62533677187500 5.00609553750000 
 N -2.25476885312500 1.76310377187500 4.56644453750000 
 N -1.94836785312500 5.15760877187500 4.69138253750000 
 N -4.45519185312500 0.926544771874999 3.57777453750000 
 N -4.12802785312500 4.43314377187500 3.65044953750000 
 N -4.84726085312500 1.35487777187500 7.47656353750000 
 N -4.75781485312500 5.09536977187500 7.52549153750000 
 S -5.76330385312500 0.917917771875000 6.17073553750000 
 S -5.58603385312500 4.73281677187500 6.09677253750000 
 S -2.94666785312500 1.41695177187500 3.06065453750000 
 S -2.51164985312500 4.67033077187500 3.23460153750000 
 S -3.24674885312500 1.74942377187500 7.19300353750000 
 S -3.12600285312500 5.35485277187500 7.24681753750000 
