16

 C -2.96100803437500 1.37215762500000 5.71636292500000 
 C -3.13393503437500 5.09500062500000 5.48638492500000 
 C -4.20707903437500 1.00956362500000 5.15957592500000 
 C -4.42838903437500 4.83058862500000 4.96761492500000 
 N -1.91641303437500 1.12842062500000 4.91500092500000 
 N -2.10561203437500 5.13559662500000 4.59644192500000 
 N -4.15481803437500 0.533167625000002 3.91844492500000 
 N -4.38855603437500 4.46663762500000 3.67618792500000 
 N -4.75436203437500 1.49491962500000 7.72306092500000 
 N -4.84301303437500 4.97740162500000 7.50572192500000 
 S -5.56470603437500 0.949259625000002 6.34552192500000 
 S -5.66494903437500 4.51791862500000 6.14154692500000 
 S -2.55237503437500 0.582720625000002 3.43244692500000 
 S -2.81022503437500 4.60734862500000 3.19291692500000 
 S -3.09928703437500 1.87013062500000 7.45297392500000 
 S -3.25446303437500 5.28890362500000 7.21749792500000 
