16

 C -3.02426496249999 1.23243080312500 5.31215560312500 
 C -2.87185496249999 5.11981180312500 5.61666060312500 
 C -4.13328196249999 0.728591803124997 4.67275360312500 
 C -4.13292196249999 4.61732080312500 5.14613660312500 
 N -1.96677396249999 1.51289680312500 4.57647660312500 
 N -1.96011996249999 5.35241480312500 4.68065460312500 
 N -3.92887096249999 0.622492803124997 3.37105660312500 
 N -4.12722396249999 4.39912480312500 3.82038160312500 
 N -4.69203996249999 0.727113803124998 7.11785060312500 
 N -4.39515596249999 4.83152280312500 7.76701860312500 
 S -5.45928296249999 0.292009803124998 5.69983760312500 
 S -5.31990796249999 4.42378580312500 6.42910660312500 
 S -2.40371096249999 1.13822480312500 3.00078460312500 
 S -2.67253996249999 4.79650880312500 3.23079060312500 
 S -3.16123996249999 1.39341480312500 7.03112160312500 
 S -2.82580296249999 5.29463480312500 7.42018360312500 
