16

 C -2.95653678437500 1.48700896250000 5.62075872500000 
 C -3.07774478437500 5.03697096250000 5.30984672500000 
 C -4.18483178437500 0.839445962500000 5.05741172500000 
 C -4.28742878437500 4.44326796250000 4.77366772500000 
 N -1.95194578437500 1.53551996250000 4.74503072500000 
 N -2.04004378437500 4.92193096250000 4.46746572500000 
 N -4.07193578437500 0.439097962500000 3.81182372500000 
 N -4.22477878437500 4.13352796250000 3.48460372500000 
 N -4.66329778437500 1.36340996250000 7.43408772500000 
 N -4.88896278437500 5.15151796250000 7.11998972500000 
 S -5.52223678437500 0.752972962500000 6.16936972500000 
 S -5.65432578437500 4.41736896250000 5.81068972500000 
 S -2.54264778437500 0.822999962500000 3.33674872500000 
 S -2.64734778437500 4.27224696250000 3.06206772500000 
 S -3.05357378437500 1.84667796250000 7.31332772500000 
 S -3.25406878437500 5.37231196250000 6.96081972500000 
