16

 C -3.16222859375000 1.14471181875000 5.56253022187500 
 C -3.13728359375000 5.68423481875000 5.57323222187500 
 C -4.40497759375000 0.726209818749999 4.90152022187500 
 C -4.18681259375000 4.91629181875000 4.93265022187500 
 N -2.18116959375000 1.21685781875000 4.71351822187500 
 N -2.02182759375000 5.85636181875000 4.85200922187500 
 N -4.35619459375000 0.689401818750000 3.58549322187500 
 N -3.93472759375000 4.79602781875000 3.60902222187500 
 N -5.02344859375000 1.24317681875000 7.35095422187500 
 N -4.87727659375000 5.06581281875000 7.34532822187500 
 S -5.74104159375000 0.743724818750000 5.94294022187500 
 S -5.54255559375000 4.45154381875000 5.99246122187500 
 S -2.75868859375000 1.05545681875000 3.14379222187500 
 S -2.46013759375000 5.36070581875000 3.29666322187500 
 S -3.40928859375000 1.45675481875000 7.23954322187500 
 S -3.46652659375000 5.95780181875000 7.24307422187500 
