16

 C -3.52401512187500 1.33872995312500 5.51012562812500 
 C -3.01227612187500 5.17322195312501 5.41402062812500 
 C -4.52572712187500 0.570725953125005 4.76968562812500 
 C -4.22020712187500 4.80366195312500 4.65376062812500 
 N -2.44306712187500 1.68743195312500 4.80890262812500 
 N -1.92478812187500 5.06688495312500 4.66169362812500 
 N -4.16583412187500 0.320100953125005 3.51384962812500 
 N -4.05330712187500 4.44898395312500 3.41436562812500 
 N -5.33799012187500 0.974897953125004 7.28178962812500 
 N -5.01702312187500 5.24661195312501 7.04512062812500 
 S -5.89671712187500 0.207901953125004 5.86854662812500 
 S -5.71283512187500 4.89274495312500 5.60987862812500 
 S -2.68442912187500 1.02624795312501 3.29978862812500 
 S -2.40188412187500 4.56527995312500 3.17922562812500 
 S -3.87632412187500 1.70703995312500 7.18805562812500 
 S -3.34931112187500 5.52116195312500 7.15491162812500 
