16

 C -3.04477402812500 1.46016005312500 5.57980544375000 
 C -3.29657402812500 5.16953405312501 5.21069644375000 
 C -4.21585602812500 1.04295605312500 4.79276344375000 
 C -4.37271402812500 4.44913005312501 4.58573244375000 
 N -1.94680202812500 1.56977905312500 4.85975144375000 
 N -2.18380802812500 5.19430605312500 4.44887144375000 
 N -3.94995602812500 0.889624053125004 3.51332944375000 
 N -4.09586302812500 3.98839305312501 3.36539844375000 
 N -5.02140702812500 1.13687905312500 7.19915444375000 
 N -5.31822002812500 5.17716105312500 6.86358044375000 
 S -5.63806702812500 0.822604053125005 5.73867344375000 
 S -5.77145702812500 4.11187105312500 5.64912644375000 
 S -2.36906202812500 1.14493205312500 3.27855444375000 
 S -2.59333202812500 4.39682305312500 3.03011744375000 
 S -3.45140802812500 1.66697805312500 7.26585444375000 
 S -3.77532202812500 5.84733005312500 6.74111844375000 
