16

 C -3.18887057500000 1.71440091875000 5.40968794687500 
 C -3.09116657500000 4.93340991875000 5.57756994687500 
 C -4.41541657500000 1.33254391875000 4.74980094687500 
 C -4.26895457500000 4.57756191875000 4.87937394687500 
 N -2.13046557500000 1.86002391875000 4.59284394687500 
 N -2.05107257500000 5.15153691875000 4.75078194687500 
 N -4.29978657500000 1.25732291875000 3.43439894687500 
 N -4.16630757500000 4.40659991875000 3.56857994687500 
 N -4.96429357500000 1.13077491875000 7.19609794687500 
 N -4.90084957500000 4.70111791875000 7.47399594687500 
 S -5.75365357500000 0.920913918750002 5.78160594687500 
 S -5.57000157500000 4.53666091875000 5.93675494687500 
 S -2.74970057500000 1.62291191875000 3.06369194687500 
 S -2.60715457500000 4.78327791875000 3.22681094687500 
 S -3.34134457500000 1.70258391875000 7.16679494687500 
 S -3.31673357500000 5.27544791875000 7.30356394687500 
