16

 C -3.16313991562500 1.17029904687500 5.63161542500000 
 C -3.08085791562500 5.03869004687500 5.59751742500000 
 C -4.42944391562500 0.756536046875001 4.96731342500000 
 C -4.30953791562500 4.71052804687500 4.91590942500000 
 N -2.13283991562500 1.37922404687500 4.79482042500000 
 N -2.11428091562500 5.35540804687500 4.76233942500000 
 N -4.36020591562500 0.614143046875001 3.63900942500000 
 N -4.22276191562500 4.51695704687500 3.61685842500000 
 N -4.98767591562500 1.12843204687500 7.42396042500000 
 N -4.74451991562500 4.64907604687500 7.41529442500000 
 S -5.72688191562500 0.478542046875001 6.09207442500000 
 S -5.56025591562500 4.34156404687500 6.05232942500000 
 S -2.76806991562500 1.03763604687500 3.28975342500000 
 S -2.67106091562500 4.99854504687500 3.21496242500000 
 S -3.37388591562500 1.47581704687500 7.28722342500000 
 S -3.21537991562500 5.19752304687500 7.34184342500000 
