16

 C -3.32303635937500 1.56413513750000 5.56504642187500 
 C -3.38991635937500 5.37682113750000 5.72081042187500 
 C -4.57945435937500 1.15225313750000 4.97665642187500 
 C -4.45214135937500 4.69806913750000 5.04152242187500 
 N -2.34690635937500 1.73164913750000 4.68126142187500 
 N -2.35068535937500 5.55496613750000 4.86514142187500 
 N -4.55201035937500 1.11504513750000 3.67133642187500 
 N -4.35970135937500 4.59305113750000 3.68178942187500 
 N -4.82075935937500 1.08593413750000 7.50244742187500 
 N -5.05546635937500 4.83409413750000 7.59321242187500 
 S -5.77865035937500 0.925806137500001 6.15393042187500 
 S -5.74949535937500 4.29552613750000 6.13675342187500 
 S -3.04719435937500 1.48445813750000 3.19019242187500 
 S -2.87777035937500 5.19418313750000 3.33829042187500 
 S -3.27133235937500 1.59911513750000 7.27694542187500 
 S -3.43054535937500 5.40264913750000 7.44513742187500 
