16

 C -3.05268458125000 1.75724510937500 5.36958145937500 
 C -3.51062958125000 5.04823710937500 5.11479645937500 
 C -4.11956858125000 0.837249109375001 4.85994245937500 
 C -4.58610758125000 4.27000710937500 4.53890145937500 
 N -2.00533858125000 1.97638010937500 4.54818145937500 
 N -2.49330458125000 5.23664110937500 4.24498145937500 
 N -3.85277358125000 0.434831109375000 3.64647445937500 
 N -4.38554858125000 3.87771510937500 3.29455945937500 
 N -4.68614058125000 1.19833710937500 7.28574445937500 
 N -5.43774458125000 4.89803910937500 6.80561545937500 
 S -5.48872958125000 0.699875109375000 5.91768345937500 
 S -6.02316958125000 4.08018410937500 5.53395945937500 
 S -2.43460358125000 1.09676310937500 3.23117045937500 
 S -2.91566758125000 4.48065010937500 2.85302645937500 
 S -3.38702758125000 2.20296110937500 7.00994645937500 
 S -3.88774558125000 5.40024510937500 6.81897745937500 
