16

 C -2.89418599062500 2.11594208750000 5.45739246250000 
 C -3.08276099062500 5.19821208750000 5.36202246250000 
 C -4.10038699062500 1.61497808750000 4.81476046250000 
 C -4.29808299062500 4.77624208750000 4.63654646250000 
 N -1.85519999062500 2.31238108750000 4.62656746250000 
 N -2.07896699062500 5.53466208750000 4.57517546250000 
 N -4.02350299062500 1.33225108750000 3.51283946250000 
 N -4.10558299062500 4.74449708750000 3.33556846250000 
 N -4.63884999062500 1.80685608750000 7.38078046250000 
 N -4.91068799062500 5.07876508750000 7.14862246250000 
 S -5.43222999062500 1.41839808750000 5.94102446250000 
 S -5.68355999062500 4.56508808750000 5.70734046250000 
 S -2.47699299062500 1.82917408750000 3.15408346250000 
 S -2.52018199062500 5.27539308750000 3.04253746250000 
 S -3.01337199062500 2.24892308750000 7.22513546250000 
 S -3.28670499062500 5.32609508750000 7.09608746250000 
