16

 C -3.02424165312500 1.22983413437499 5.31185934375000 
 C -2.87004965312500 5.11922613437499 5.61485234375000 
 C -4.13626165312500 0.734823134374991 4.67070134375000 
 C -4.13345065312500 4.62282313437499 5.14361634375000 
 N -1.96162665312500 1.50910813437499 4.58676534375000 
 N -1.95386765312500 5.34999013437499 4.68191734375000 
 N -3.92762265312500 0.615930134374990 3.36740134375000 
 N -4.13162865312500 4.40459313437499 3.82303634375000 
 N -4.69217765312500 0.730976134374990 7.11435134375000 
 N -4.39898765312500 4.82715113437499 7.76619234375000 
 S -5.45871365312500 0.294538134374990 5.70231334375000 
 S -5.31972665312500 4.41756713437499 6.42717734375000 
 S -2.40090865312500 1.13019713437499 3.00714734375000 
 S -2.67315265312500 4.79543013437499 3.23022434375000 
 S -3.16173965312500 1.39880613437499 7.03055234375000 
 S -2.82606165312500 5.29740713437499 7.42764434375000 
