16

 C -3.24506300937500 1.19600638750000 5.54908121250000 
 C -2.98420400937500 5.02108338750000 5.46968321250000 
 C -4.55291000937500 0.833817387500000 5.00626221250000 
 C -4.20780100937500 4.89907638750000 4.72092221250000 
 N -2.34434100937500 1.31607138750000 4.58287021250000 
 N -1.94718600937500 5.26206538750000 4.66593521250000 
 N -4.57403800937500 0.608046387500000 3.69706921250000 
 N -4.06426500937500 4.82029238750000 3.38876221250000 
 N -4.83233200937500 0.843318387500001 7.55204821250000 
 N -4.83731100937500 4.67328738750000 7.25854121250000 
 S -5.78307000937500 0.826964387500000 6.18910421250000 
 S -5.56067400937500 4.63432538750000 5.81411221250000 
 S -3.06005000937500 1.00809138750000 3.11920821250000 
 S -2.45427900937500 5.03479438750000 3.08924821250000 
 S -3.24875200937500 1.42686638750000 7.30443821250000 
 S -3.23320800937500 5.13403638750000 7.18295221250000 
