16

 C -3.09442907812500 0.946379512499997 5.59184059375000 
 C -3.28899707812500 4.84101251250000 5.25313559375000 
 C -4.33711307812500 0.748693512499997 4.97046859375000 
 C -4.48746207812500 4.31665351250000 4.62540459375000 
 N -2.08778807812500 1.19457151250000 4.74272659375000 
 N -2.32777507812500 5.17965551250000 4.37629759375000 
 N -4.29171707812500 0.670908512499997 3.64834559375000 
 N -4.34910707812500 4.03360151250000 3.31637059375000 
 N -4.92377907812500 0.762648512499997 7.49788559375000 
 N -5.12580107812500 4.72820751250000 7.07649659375000 
 S -5.67490707812500 0.526578512499997 6.05155259375000 
 S -5.85897107812500 4.03365451250000 5.72282859375000 
 S -2.74134007812500 1.03946351250000 3.21466059375000 
 S -2.85323207812500 4.63369451250000 2.88578959375000 
 S -3.28160607812500 0.880011512499997 7.32033959375000 
 S -3.58643107812500 5.29318651250000 6.90076859375000 
