16

 C -3.15460787500000 1.25792514375000 5.75553801562500 
 C -3.07485687500000 4.67679514375000 5.42453601562500 
 C -4.32213787500000 0.727950143750002 5.05913001562500 
 C -4.42833687500000 4.61958714375000 4.95385901562500 
 N -2.18602887500000 1.62473214375000 4.95287401562500 
 N -2.10501787500000 4.85408514375000 4.50088901562500 
 N -4.27192187500000 0.747577143750001 3.73588501562500 
 N -4.43688687500000 4.51651014375000 3.63506201562500 
 N -4.81435187500000 0.737857143750001 7.65426301562500 
 N -4.66225187500000 4.68439614375000 7.50053901562500 
 S -5.52537787500000 0.132498143750001 6.24761701562500 
 S -5.62096287500000 4.28489014375000 6.18110301562500 
 S -2.75848287500000 1.31645314375000 3.40334501562500 
 S -2.88675587500000 4.67370714375000 3.03915001562500 
 S -3.19460187500000 1.04031814375000 7.57930401562500 
 S -3.03106487500000 4.81939814375000 7.16009401562500 
