16

 C -2.85570076562500 1.93736487500000 5.59166115312500 
 C -3.14054976562500 5.27452087500000 5.68371215312500 
 C -4.13173776562500 1.59006187500000 5.01424615312500 
 C -4.41138276562500 4.87101587500000 5.11281315312500 
 N -1.91031976562500 1.87594187500000 4.69819515312500 
 N -2.13321876562500 5.36485187500000 4.83488415312500 
 N -4.09391576562500 1.27483287500000 3.74866415312500 
 N -4.30643776562500 4.56742187500000 3.82608115312500 
 N -4.43673176562500 1.44707887500000 7.45914615312500 
 N -4.91669376562500 5.12878187500000 7.61069815312500 
 S -5.43097876562500 1.52482287500000 6.14430215312500 
 S -5.72437676562500 4.68873887500000 6.24550215312500 
 S -2.57996676562500 1.58558487500000 3.21220415312500 
 S -2.79601476562500 4.90004887500000 3.32274415312500 
 S -2.85522576562500 1.95204087500000 7.32627515312500 
 S -3.27523376562500 5.38276087500000 7.37119015312500 
