16

 C -3.02127406875000 1.30467847812500 5.57323587500000 
 C -3.06190306875000 5.09943747812500 5.57618587500000 
 C -4.16522506875000 0.731249478125004 4.99532087500000 
 C -4.20154606875000 4.39316547812500 4.99598187500000 
 N -1.92993806875000 1.35522047812500 4.82517487500000 
 N -2.06637106875000 5.37039747812500 4.73148187500000 
 N -3.99737306875000 0.381276478125003 3.74440487500000 
 N -4.00290406875000 4.00473647812500 3.73624887500000 
 N -4.90142206875000 1.29984347812500 7.40703187500000 
 N -4.83208906875000 4.83368047812500 7.46773387500000 
 S -5.57150206875000 0.672254478125003 6.01691987500000 
 S -5.58686106875000 4.40419447812500 6.05185287500000 
 S -2.43149706875000 0.720423478125004 3.30711287500000 
 S -2.48812906875000 4.57459247812500 3.29525287500000 
 S -3.24491206875000 1.60804847812500 7.29449287500000 
 S -3.21080106875000 5.36318447812500 7.33741387500000 
