16

 C -3.08424116250000 1.59315961250000 5.47581023750000 
 C -2.88815116250000 4.92351161250000 5.40339223750000 
 C -4.35782916250000 1.13739561250000 4.95711823750000 
 C -4.20509616250000 4.71374161250000 4.79556723750000 
 N -2.05877916250000 1.60227861250000 4.60546623750000 
 N -1.88902616250000 4.86441361250000 4.53742823750000 
 N -4.27355516250000 0.805896612500001 3.65405623750000 
 N -4.20216516250000 4.39665961250000 3.51239123750000 
 N -4.84917816250000 1.41258261250000 7.38936223750000 
 N -4.70283516250000 5.16114461250000 7.30995023750000 
 S -5.65553416250000 0.823715612500000 6.00391523750000 
 S -5.55337116250000 4.93700861250000 5.89346623750000 
 S -2.72083616250000 1.19342561250000 3.16716623750000 
 S -2.60984916250000 4.45497161250000 3.05177923750000 
 S -3.26011816250000 1.82447661250000 7.19926523750000 
 S -3.06774116250000 5.28835461250000 7.06693023750000 
