16

 C -3.06136838437500 1.55182568750000 5.69345166875000 
 C -3.37936638437500 4.85853068750000 5.54280566875000 
 C -4.25482638437500 1.14964968750000 4.99735066875000 
 C -4.53503738437500 4.43653668750000 4.75957066875000 
 N -1.93482638437500 1.66675368750000 4.92940866875000 
 N -2.22505938437500 4.99452768750000 4.95414966875000 
 N -4.10452838437500 0.991276687500004 3.65841266875000 
 N -4.18978238437500 4.26938268750000 3.45685666875000 
 N -5.08293438437500 1.09194168750000 7.40218866875000 
 N -5.21352938437500 4.74601968750000 7.27983466875000 
 S -5.66230538437500 0.966263687500004 5.80508166875000 
 S -5.90746238437500 4.23958268750000 5.78871166875000 
 S -2.46546538437500 1.25519168750000 3.33361366875000 
 S -2.49583938437500 4.63825168750000 3.38226166875000 
 S -3.46705338437500 1.60155468750000 7.44863966875000 
 S -3.63360138437500 5.04034168750000 7.27051666875000 
