16

 C -3.09541904062500 1.47821891250000 5.41467339375000 
 C -3.37538304062500 5.27716391250000 5.24788939375000 
 C -4.26020404062500 0.752137912500002 4.90731739375000 
 C -4.35850304062500 4.41336491250000 4.63315939375000 
 N -2.15662104062500 1.71217491250000 4.49613739375000 
 N -2.44983504062500 5.67363191250000 4.38769439375000 
 N -4.18397804062500 0.426547912500002 3.59539939375000 
 N -4.14706004062500 4.06887791250000 3.37517539375000 
 N -4.77926604062500 1.29833091250000 7.39845739375000 
 N -5.20614804062500 4.92539991250000 7.02184539375000 
 S -5.53932004062500 0.599812912500003 6.14850839375000 
 S -5.70080704062500 4.11338991250000 5.66764539375000 
 S -2.77903304062500 1.00911891250000 3.06163439375000 
 S -2.75775004062500 4.84363891250000 2.98907339375000 
 S -3.23749704062500 1.77931191250000 7.17858039375000 
 S -3.67467304062500 5.63925291250000 6.90774839375000 
