16

 C -3.39086600312500 1.28991143437500 5.44525169062500 
 C -3.30813700312500 5.16377743437500 5.81196569062500 
 C -4.56318500312500 0.827791434375000 4.74009069062500 
 C -4.51774400312500 4.70345343437500 5.18025669062500 
 N -2.35128000312500 1.62702243437500 4.68029069062500 
 N -2.26341900312500 5.23866743437500 4.98492269062500 
 N -4.48882500312500 0.985271434375000 3.38012769062500 
 N -4.49291200312500 4.74776743437500 3.85017369062500 
 N -5.26574800312500 0.949508434375001 7.14106069062500 
 N -5.03231300312500 4.84180643437500 7.72846069062500 
 S -5.94729900312500 0.416064434375000 5.72662469062500 
 S -5.75713700312500 4.37517443437500 6.29279969062500 
 S -2.94231100312500 1.32314743437500 3.08503369062500 
 S -2.85847700312500 5.08662443437500 3.46432169062500 
 S -3.63020600312500 1.39038343437500 7.14877969062500 
 S -3.42235400312500 5.22269143437500 7.58354169062500 
