16

 C -3.27770011562500 1.37364539375000 5.34154158125000 
 C -3.07097711562500 5.00275239375000 5.44404458125000 
 C -4.39481411562500 0.773254393750000 4.67650358125000 
 C -4.25404611562500 4.43989339375000 4.87937558125000 
 N -2.20967811562500 1.51009739375000 4.57977858125000 
 N -1.95808311562500 4.84525839375000 4.74050858125000 
 N -4.17711911562500 0.561062393750000 3.39172458125000 
 N -4.12406811562500 4.10428939375000 3.59653758125000 
 N -5.08589611562500 1.02651939375000 7.12053258125000 
 N -4.90973711562500 4.95263139375000 7.28949358125000 
 S -5.68940611562500 0.444681393750001 5.68669958125000 
 S -5.65970611562500 4.47610139375000 5.88945458125000 
 S -2.55877311562500 0.954215393750000 3.04911558125000 
 S -2.51407911562500 4.32128639375000 3.27780758125000 
 S -3.54357411562500 1.70300739375000 7.02218058125000 
 S -3.31883411562500 5.46150339375000 7.08261058125000 
