16

 C -3.02714157812500 1.84846795625000 5.81568049062500 
 C -3.07567257812500 5.33365195625000 5.69444549062500 
 C -4.32666157812500 1.68908795625000 5.14710149062500 
 C -4.35482557812500 5.07426695625000 5.04572549062500 
 N -2.00616757812500 2.04377995625000 4.95388749062500 
 N -2.14142757812500 5.52406295625000 4.79571249062500 
 N -4.29268057812500 1.52604195625000 3.79302249062500 
 N -4.36384957812500 4.86234395625000 3.72448149062500 
 N -4.76106257812500 1.38379795625000 7.61193949062500 
 N -4.80694257812500 5.03709895625000 7.54595149062500 
 S -5.63805157812500 1.42782195625000 6.22352449062500 
 S -5.62815057812500 4.78764795625000 6.13120749062500 
 S -2.70343457812500 1.63320495625000 3.49196949062500 
 S -2.76241857812500 5.17507495625000 3.27149649062500 
 S -3.15936857812500 1.80069095625000 7.50493549062500 
 S -3.15695857812500 5.32192195625000 7.47382749062500 
