16

 C -3.42245220312500 1.30136941874999 5.45052176875000 
 C -3.11683720312500 4.92088041875000 5.03571376875000 
 C -4.50378720312500 0.628330418749996 4.81854276875000 
 C -4.31956220312500 4.39903041875000 4.41065076875000 
 N -2.43098720312500 1.67132441875000 4.64715076875000 
 N -2.13985120312500 5.12987241875000 4.17981776875000 
 N -4.37158120312500 0.503700418749996 3.49021676875000 
 N -4.23514120312500 4.31670441875000 3.10602976875000 
 N -5.11863320312500 0.873155418749995 7.30711076875000 
 N -4.96704620312500 4.77522541875000 6.82141076875000 
 S -5.82955620312500 0.369757418749995 5.90437376875000 
 S -5.64295220312500 4.05374841875000 5.46195376875000 
 S -2.85201220312500 1.20387441875000 3.13171976875000 
 S -2.70287020312500 4.79742741875000 2.62024976875000 
 S -3.59461520312500 1.44291441875000 7.18830776875000 
 S -3.35702720312500 5.21332941875000 6.77456776875000 
