16

 C -2.96913720937500 1.21710500937500 5.55194440000000 
 C -2.92803320937500 5.07402300937500 5.67782640000000 
 C -4.16370220937500 0.654886009374999 4.84308140000000 
 C -4.12793720937500 4.48961900937500 5.10022440000000 
 N -1.86760720937500 1.36471700937500 4.81843240000000 
 N -1.93167420937500 5.31261800937500 4.81555840000000 
 N -3.87581220937500 0.365040009374999 3.56336440000000 
 N -4.04456320937500 4.18822700937500 3.79137740000000 
 N -4.88642620937500 1.31696000937500 7.22301940000000 
 N -4.71464120937500 4.83361600937500 7.59351440000000 
 S -5.51687320937500 0.607951009374998 5.87258140000000 
 S -5.44753620937500 4.33804600937500 6.20082340000000 
 S -2.31340120937500 0.817534009374999 3.29296840000000 
 S -2.57002920937500 4.80582500937500 3.33279940000000 
 S -3.23400420937500 1.63011200937500 7.19158740000000 
 S -3.12789120937500 5.37504200937500 7.37665840000000 
