16

 C -3.15643811250000 1.19453007187500 5.61514625937500 
 C -3.07828711250000 5.03066807187500 5.61141725937500 
 C -4.42455811250000 0.800122071875001 4.96956225937500 
 C -4.30332311250000 4.68377407187500 4.93972125937500 
 N -2.13137511250000 1.38011907187500 4.78866025937500 
 N -2.10286611250000 5.36300007187500 4.77372725937500 
 N -4.33351711250000 0.594739071875001 3.68849125937500 
 N -4.22044011250000 4.51115007187500 3.63989325937500 
 N -4.98591111250000 1.14026107187500 7.41460125937500 
 N -4.77481211250000 4.65302707187500 7.41730425937500 
 S -5.71468511250000 0.509088071875000 6.07463925937500 
 S -5.58441211250000 4.35244307187500 6.02859825937500 
 S -2.77711111250000 1.05566507187500 3.28474625937500 
 S -2.70071611250000 5.01719207187500 3.20156025937500 
 S -3.35353611250000 1.48094507187500 7.25728625937500 
 S -3.21634111250000 5.19407907187500 7.34725125937500 
