16

 C -2.79300273750000 1.77642925000000 5.47842444687500 
 C -3.13659973750000 5.18420425000000 5.67282444687500 
 C -4.08098073750000 1.42653825000000 4.96878744687500 
 C -4.38809173750000 4.72238525000000 5.07962644687500 
 N -1.86922973750000 2.00496825000000 4.55351644687500 
 N -2.19664273750000 5.38617525000000 4.75163544687500 
 N -4.12595973750000 1.17891125000000 3.66528844687500 
 N -4.34427373750000 4.50554925000000 3.76399144687500 
 N -4.53069073750000 1.57760425000000 7.56428844687500 
 N -4.92819473750000 5.04550525000000 7.55596644687500 
 S -5.38056773750000 1.50999425000000 6.15264444687500 
 S -5.73233073750000 4.66510525000000 6.14067344687500 
 S -2.58475973750000 1.53488825000000 3.09330644687500 
 S -2.79732873750000 4.90853625000000 3.30893944687500 
 S -2.91779573750000 1.96630225000000 7.26052544687500 
 S -3.30216173750000 5.29561125000000 7.48236844687500 
