16

 C -3.12149259687500 1.32082915312500 5.42264529375000 
 C -2.89056559687500 5.19778815312500 5.88175129375000 
 C -4.28953559687500 0.859154153125003 4.77666329375000 
 C -4.04413859687500 4.69464815312500 5.15597829375000 
 N -2.10122159687500 1.75664515312500 4.66881329375000 
 N -1.83279159687500 5.38319915312500 5.10067129375000 
 N -4.26107659687500 0.942966153125003 3.45414029375000 
 N -3.92896859687500 4.66157315312500 3.82521129375000 
 N -4.90071259687500 0.764769153125003 7.34162729375000 
 N -4.76669459687500 4.97744915312500 7.61624929375000 
 S -5.63688359687500 0.591742153125002 5.87862029375000 
 S -5.39841659687500 4.47784615312500 6.15339529375000 
 S -2.70415559687500 1.47614715312500 3.05226929375000 
 S -2.31158259687500 5.02339815312500 3.49118529375000 
 S -3.31160359687500 1.22451515312500 7.22884729375000 
 S -3.13930559687500 5.43424115312500 7.63285329375000 
