16

 C -3.12104250625000 1.63463560312500 5.47692965625000 
 C -3.03416550625000 5.30927360312500 5.48783065625000 
 C -4.30657450625000 1.19672960312500 4.83437765625000 
 C -4.27684050625000 4.95375360312500 4.85053365625000 
 N -2.10863250625000 1.84057560312500 4.68446165625000 
 N -2.00070350625000 5.44235460312500 4.65506665625000 
 N -4.18801750625000 1.10711160312500 3.52055065625000 
 N -4.21823650625000 4.85087360312500 3.53850965625000 
 N -4.76794850625000 1.35977960312500 7.30548165625000 
 N -4.77752650625000 4.98884760312500 7.41739765625000 
 S -5.65565450625000 1.07450860312500 5.89146465625000 
 S -5.58921050625000 4.92627360312500 5.93329765625000 
 S -2.50671150625000 1.38387960312500 3.18367965625000 
 S -2.59302850625000 5.12714960312500 3.11457565625000 
 S -3.16851150625000 1.67388060312500 7.13500465625000 
 S -3.14518350625000 5.38817560312500 7.24048365625000 
