16

 C -2.90672834687500 1.59837462500000 5.42436021875000 
 C -3.14717834687500 5.16631262500000 5.55134721875000 
 C -4.05951934687500 0.950968624999999 4.84603421875000 
 C -4.24429634687500 4.50741662500000 4.85726621875000 
 N -1.94708334687500 1.75992662500000 4.53487121875000 
 N -2.05565134687500 5.40682162500000 4.87029221875000 
 N -4.03015434687500 0.679734624999999 3.56400021875000 
 N -3.84755034687500 4.15672362500000 3.61146621875000 
 N -4.64603034687500 0.998006624999999 7.24481821875000 
 N -5.00084534687500 4.92954462500000 7.38914121875000 
 S -5.34085534687500 0.402216625000000 5.85962321875000 
 S -5.67896134687500 4.43831662500000 5.87374721875000 
 S -2.61210334687500 1.23765562500000 3.04333521875000 
 S -2.30910334687500 4.69051962500000 3.38009721875000 
 S -3.15595934687500 1.69360462500000 7.14904421875000 
 S -3.42099334687500 5.45458662500000 7.21916021875000 
