16

 C -2.90581745312500 1.64270359687500 5.37800330000000 
 C -3.22779745312500 5.11465759687500 5.61563230000000 
 C -4.17727645312500 1.23205059687500 4.82651030000000 
 C -4.44818145312500 4.75071759687500 4.93977630000000 
 N -1.92702345312500 1.69904859687500 4.50523730000000 
 N -2.20560845312500 5.24324259687500 4.79269730000000 
 N -4.25406445312500 1.11992359687500 3.49142430000000 
 N -4.39079345312500 4.72241759687500 3.60712830000000 
 N -4.63120245312500 1.65011959687500 7.41605730000000 
 N -4.94404345312500 4.62840359687500 7.49300230000000 
 S -5.43882645312500 1.17119359687500 6.08986130000000 
 S -5.73201145312500 4.43708259687500 6.00689730000000 
 S -2.65165145312500 1.26907759687500 3.00176830000000 
 S -2.77102745312500 4.98555559687500 3.23084230000000 
 S -3.03831045312500 1.98396659687500 7.13277030000000 
 S -3.39136045312500 5.21077259687500 7.38643530000000 
