16

 C -3.56064480625000 1.51479207187500 5.32228080625000 
 C -3.30874580625000 5.02658607187500 5.78268780625000 
 C -4.64649980625000 0.981168071874999 4.58066080625000 
 C -4.52106080625000 4.60504507187500 5.13662680625000 
 N -2.46304780625000 1.83999907187500 4.65266980625000 
 N -2.31000880625000 5.10569107187500 4.94921580625000 
 N -4.43110680625000 0.978057071874998 3.21332880625000 
 N -4.52744680625000 4.54133207187500 3.80416180625000 
 N -5.22431480625000 0.877166071874998 7.10590280625000 
 N -5.07998380625000 4.96636307187500 7.62435180625000 
 S -5.98599280625000 0.662457071874998 5.64957880625000 
 S -5.85890680625000 4.59463907187500 6.19518780625000 
 S -2.89375180625000 1.59536707187500 3.06390480625000 
 S -2.85210780625000 4.80598707187500 3.44122780625000 
 S -3.79162880625000 1.66711007187500 7.07138080625000 
 S -3.40776580625000 5.16242607187500 7.51783180625000 
