16

 C -3.24096327812500 1.22859730625000 5.31077615625000 
 C -2.88737127812500 5.14004430625000 5.43058515625000 
 C -4.50335727812500 0.907628306249998 4.67499915625000 
 C -4.07577627812500 4.61542630625000 4.76290815625000 
 N -2.22836327812500 1.21534230625000 4.45532815625000 
 N -1.89287127812500 5.37740130625000 4.57095215625000 
 N -4.40499427812500 0.548095306249998 3.40497515625000 
 N -3.97686027812500 4.31302030625000 3.47202515625000 
 N -5.03863327812500 1.65016030625000 7.02141515625000 
 N -4.76106927812500 5.07522930625000 7.17199215625000 
 S -5.82017327812500 0.951473306249998 5.70567915625000 
 S -5.40960427812500 4.35498730625000 5.83932615625000 
 S -2.80844627812500 0.773546306249997 2.96280415625000 
 S -2.44577827812500 4.85599630625000 3.11194715625000 
 S -3.35787527812500 1.59986630625000 7.00448715625000 
 S -3.19146827812500 5.55798930625000 7.04712515625000 
