16

 C -3.21699450625000 1.60170591875000 5.61004354687500 
 C -3.00677550625000 5.39523191875000 5.50856754687500 
 C -4.35729450625000 1.23184391875000 4.87744854687500 
 C -4.24686450625000 4.97296891875000 4.93784254687500 
 N -2.13688050625000 1.92041591875000 4.87682454687500 
 N -1.97276850625000 5.37761391875000 4.64190854687500 
 N -4.18352250625000 1.33563591875000 3.57927754687500 
 N -4.24696350625000 4.73388491875000 3.63561654687500 
 N -5.04359650625000 0.827193918749998 7.28758554687500 
 N -4.78958450625000 5.21604991875000 7.41649854687500 
 S -5.80179850625000 0.773628918749998 5.72528254687500 
 S -5.54899750625000 4.82014891875000 6.04253354687500 
 S -2.61981650625000 1.72774191875000 3.30806054687500 
 S -2.67587650625000 5.00844391875000 3.18338854687500 
 S -3.39476150625000 1.22109491875000 7.28518354687500 
 S -3.19624950625000 5.42726591875000 7.24476154687500 
