16

 C -3.10667515000000 1.69022322500000 5.53010891562500 
 C -3.09250615000000 5.04015022500000 5.52513291562500 
 C -4.43896215000000 1.53274222500000 4.97294891562500 
 C -4.33433915000000 4.67323422500000 4.87513091562500 
 N -2.10813415000000 1.73698322500000 4.61781791562500 
 N -2.09431415000000 5.36787522500001 4.69955091562500 
 N -4.49214615000000 1.59226922500000 3.64779491562500 
 N -4.24498015000000 4.78393822500000 3.54411991562500 
 N -4.75848115000000 1.58102222500000 7.49357191562500 
 N -4.80068015000000 4.46534122500000 7.46912191562500 
 S -5.71755515000000 1.49429622500000 6.15291591562500 
 S -5.66632415000000 4.33461822500000 6.05503991562500 
 S -2.99200115000000 1.60461822500000 3.15975491562500 
 S -2.70939015000000 5.14659722500000 3.17836591562500 
 S -3.11455615000000 1.63282322500000 7.29880091562500 
 S -3.14359315000000 4.88741722500000 7.22595391562500 
