16

 C -3.07035122500000 1.04274044687500 5.59565687187500 
 C -3.36872822500000 4.92131344687500 5.19381087187500 
 C -4.37620522500000 0.702755446875000 5.00470087187500 
 C -4.51977022500000 4.27105244687500 4.60726587187500 
 N -2.08349022500000 1.18702144687500 4.73657787187500 
 N -2.38881822500000 5.21655144687500 4.35946887187500 
 N -4.28450522500000 0.606391446875000 3.69928587187500 
 N -4.38411422500000 3.99861244687500 3.32958587187500 
 N -4.87093822500000 0.774007446874999 7.51258587187500 
 N -5.19223822500000 4.73854244687500 6.98341587187500 
 S -5.69120822500000 0.552286446875000 6.10349287187500 
 S -5.85134422500000 4.00936344687500 5.70482287187500 
 S -2.76122622500000 1.09557544687500 3.17086487187500 
 S -2.91255922500000 4.59244644687500 2.83895387187500 
 S -3.27339722500000 0.912991446875000 7.30709087187500 
 S -3.61554222500000 5.25681944687500 6.93108887187500 
