16

 C -3.03503893437500 1.35830258437501 5.52035223437500 
 C -3.41069793437500 5.07642558437501 5.46497223437500 
 C -4.33434893437500 0.999446584375006 4.95366023437500 
 C -4.60933093437500 4.52991758437501 4.78988423437500 
 N -2.06449893437500 1.32165458437501 4.59972223437500 
 N -2.41294593437500 5.43416858437501 4.62229423437500 
 N -4.41351593437500 0.743767584375005 3.66381823437500 
 N -4.50854993437500 4.37582358437501 3.48288823437500 
 N -4.85297593437500 1.15046258437501 7.37755923437500 
 N -4.99070193437500 4.56501258437501 7.40891423437500 
 S -5.73224593437500 0.918571584375005 6.02210823437500 
 S -5.87345593437500 4.16409758437501 5.94294023437500 
 S -2.86002093437500 1.08849858437501 3.07093723437500 
 S -2.95966693437500 5.00678758437501 3.10282423437500 
 S -3.29083493437500 1.61450758437501 7.26157123437500 
 S -3.46986493437500 5.19477458437501 7.14996123437500 
