16

 C -2.96202876875000 1.41003763750000 5.41887156875000 
 C -3.25004176875000 5.25397963750000 5.45537356875000 
 C -4.24522276875000 0.957501637500001 4.87214756875000 
 C -4.44667076875000 4.81403563750000 4.78220956875000 
 N -2.06338576875000 1.70201763750000 4.52011156875000 
 N -2.21772476875000 5.64602363750000 4.68464956875000 
 N -4.30433576875000 0.872443637500001 3.55491656875000 
 N -4.26988176875000 4.65782563750000 3.47801456875000 
 N -4.64057376875000 1.18981663750000 7.33270156875000 
 N -5.13019076875000 4.67514363750000 7.24851556875000 
 S -5.45520676875000 0.716762637500001 5.95974756875000 
 S -5.81877976875000 4.40485963750000 5.73072156875000 
 S -2.75951876875000 1.22033363750000 3.06484256875000 
 S -2.73395176875000 5.14582563750000 3.12160556875000 
 S -3.03826376875000 1.62466063750000 7.14702856875000 
 S -3.54957976875000 5.21384263750000 7.17805456875000 
