16

 C -3.36513273437500 1.28071233437500 5.26440698750000 
 C -3.10607373437500 5.11210033437500 5.44939598750000 
 C -4.58645073437500 0.879427334375000 4.69182298750000 
 C -4.37692473437500 5.12173433437500 4.76055998750000 
 N -2.37354373437500 1.41595633437500 4.40635498750000 
 N -2.02333673437500 5.36327333437500 4.68866498750000 
 N -4.55691973437500 0.591299334374999 3.41273798750000 
 N -4.23437773437500 5.17921033437500 3.41283898750000 
 N -4.99723673437500 1.11695133437500 7.18701898750000 
 N -5.00675273437500 4.84536533437500 7.20415398750000 
 S -5.73534173437500 0.552444334375000 5.87206498750000 
 S -5.87618673437500 4.99823033437500 5.72990898750000 
 S -2.98926373437500 1.03383933437500 2.92991798750000 
 S -2.60729573437500 5.45184833437500 3.13864398750000 
 S -3.40597773437500 1.58663533437500 6.98577198750000 
 S -3.36468873437500 5.12788433437500 7.16640398750000 
