16

 C -2.87774459687500 1.57281548125001 5.83914223125000 
 C -3.34671959687500 5.36740948125001 5.53462923125000 
 C -4.14142359687500 1.38126548125001 5.19400823125000 
 C -4.55610559687500 4.91920648125000 4.90991223125000 
 N -1.89137859687500 1.65408448125000 4.99198223125000 
 N -2.39731059687500 5.65257348125001 4.67463123125000 
 N -4.07496759687500 1.34991348125001 3.87204523125000 
 N -4.54381159687500 4.80295648125001 3.59765723125000 
 N -4.59571259687500 1.42758548125000 7.70338823125000 
 N -5.06594859687500 5.05890048125000 7.42633323125000 
 S -5.44980359687500 1.41907248125001 6.27570323125000 
 S -5.84011959687500 4.69340548125001 6.00854223125000 
 S -2.47024359687500 1.54194248125000 3.42997023125000 
 S -3.04571559687500 5.21942248125000 3.14519023125000 
 S -2.89553959687500 1.55848448125001 7.50587123125000 
 S -3.47401359687500 5.48892548125001 7.26270723125000 
