16

 C -3.15319774375000 1.46957611562501 5.28449330312500 
 C -3.10064574375000 5.25650411562501 5.54696630312500 
 C -4.33384674375000 0.975730115625007 4.59416530312500 
 C -4.38418074375000 4.76360611562501 4.98500230312500 
 N -2.15697874375000 1.79466111562501 4.45635830312500 
 N -2.09225574375000 5.29538911562501 4.71129230312500 
 N -4.35134974375000 0.984108115625006 3.24949530312500 
 N -4.34652674375000 4.59199311562501 3.66703030312500 
 N -4.73891074375000 0.518167115625007 7.21661330312500 
 N -4.63373374375000 5.02247911562501 7.53481430312500 
 S -5.52665174375000 0.297857115625007 5.73962330312500 
 S -5.56806874375000 4.44587311562501 6.24061930312500 
 S -2.82361174375000 1.58487311562501 2.88854130312500 
 S -2.72013274375000 4.92316011562501 3.23373430312500 
 S -3.26339674375000 1.32854211562501 7.06758530312500 
 S -3.09322874375000 5.59398311562501 7.22590830312500 
