16

 C -2.88843138125000 1.33939905000000 5.81056789687500 
 C -3.24574738125000 5.00422905000000 5.67116989687500 
 C -4.17876538125000 1.28212805000000 5.18172489687500 
 C -4.50414938125000 4.83402805000000 4.99038789687500 
 N -1.84890438125000 1.42581605000000 5.01602889687500 
 N -2.17491638125000 5.04210705000000 4.85517689687500 
 N -4.05592038125000 1.24965205000000 3.88459889687500 
 N -4.44573038125000 4.76633605000000 3.66385289687500 
 N -4.60331538125000 1.42573305000000 7.65124589687500 
 N -5.07820738125000 4.82157605000000 7.48662589687500 
 S -5.46253138125000 1.25589905000000 6.27243789687500 
 S -5.85470038125000 4.60192605000000 5.99588389687500 
 S -2.46442838125000 1.31617705000000 3.44185689687500 
 S -2.87462338125000 4.88437105000000 3.26304989687500 
 S -2.94571038125000 1.56071505000000 7.47491589687500 
 S -3.42494738125000 5.10319305000000 7.44356689687500 
