16

 C -3.10377460625000 1.12869725937500 5.55296475312500 
 C -3.31927860625000 4.77300625937500 5.41390875312500 
 C -4.22485960625000 0.579888259375001 4.80324775312500 
 C -4.64615060625000 4.77641825937500 4.82042775312500 
 N -2.12303960625000 1.60829125937500 4.77919175312500 
 N -2.31157360625000 4.89237525937500 4.53025875312500 
 N -4.09533660625000 0.635341259375001 3.47523975312500 
 N -4.58926560625000 4.68199025937500 3.51158075312500 
 N -5.09764060625000 0.575287259375000 7.33049875312500 
 N -5.10211860625000 4.80418325937500 7.29278275312500 
 S -5.62978760625000 6.050025937500036E-002 5.76940675312500 
 S -5.97138460625000 4.52139725937500 5.93913975312500 
 S -2.61890860625000 1.28193725937500 3.19076575312500 
 S -3.00865660625000 4.71938325937500 3.02362775312500 
 S -3.53609260625000 1.15565325937500 7.35777175312500 
 S -3.44910760625000 4.76284025937500 7.14421575312500 
