16

 C -3.33478560937500 1.36473895000000 5.64623319375000 
 C -3.36545660937500 5.14007895000000 5.25608719375000 
 C -4.50710160937500 1.03365795000000 4.97814319375000 
 C -4.48208160937500 4.48876895000000 4.63112419375000 
 N -2.22666060937500 1.53423795000000 4.85977619375000 
 N -2.30198560937500 5.24936195000000 4.44961319375000 
 N -4.43387960937500 0.848017950000000 3.62417919375000 
 N -4.37227860937500 4.34116295000000 3.29804319375000 
 N -5.21070160937500 0.969545950000001 7.46972419375000 
 N -4.98691960937500 4.68919895000000 7.17009319375000 
 S -5.94264160937500 0.759056950000000 5.99759819375000 
 S -5.80302260937500 4.34834895000000 5.77440519375000 
 S -2.86139860937500 1.18758095000000 3.32911619375000 
 S -2.81695160937500 4.89129495000000 2.92113019375000 
 S -3.62532360937500 1.47638995000000 7.38599719375000 
 S -3.47925060937500 5.30414495000000 6.97732219375000 
