16

 C -3.64902244375000 1.32297038750000 5.76824397812500 
 C -3.14750644375000 5.06350638750000 5.36029297812500 
 C -4.69809744375000 0.906626387500001 4.91343597812500 
 C -4.38721744375000 4.54708838750000 4.80588897812500 
 N -2.49446944375000 1.57104338750000 5.11396097812500 
 N -2.23425644375000 5.28523038750000 4.42075097812500 
 N -4.35678344375000 0.646065387500001 3.62180797812500 
 N -4.35050544375000 4.26022838750000 3.52074397812500 
 N -5.66476244375000 0.774834387500000 7.39496697812500 
 N -4.81973844375000 4.86494638750000 7.32365297812500 
 S -6.16056644375000 0.453988387500001 5.82529297812500 
 S -5.65790144375000 4.41717638750000 5.98828097812500 
 S -2.78992144375000 1.14079638750000 3.50463897812500 
 S -2.88026944375000 4.68709338750000 2.97853597812500 
 S -4.13049244375000 1.33126338750000 7.53474197812500 
 S -3.28361244375000 5.43550538750000 7.05415497812500 
