16

 C -3.39136434375000 1.45237129375000 5.47012589687500 
 C -3.03677934375000 5.15307429375000 5.85347289687500 
 C -4.63944734375000 1.14845129375000 4.80592989687500 
 C -4.30160434375000 4.93696729375000 5.31161189687500 
 N -2.31470434375000 1.57033329375000 4.70850689687500 
 N -2.09113934375000 5.21775229375000 4.92316189687500 
 N -4.43003534375000 1.16448429375000 3.46751589687500 
 N -4.37207334375000 4.85023229375000 3.97614589687500 
 N -5.07256534375000 1.17498329375000 7.34474089687500 
 N -4.74528834375000 5.13372129375000 7.83634289687500 
 S -5.90020834375000 0.753230293750000 5.97324389687500 
 S -5.59353234375000 5.01744229375000 6.36870489687500 
 S -2.84257434375000 1.58017129375000 3.18279389687500 
 S -2.85529034375000 5.03540329375000 3.41517389687500 
 S -3.50789334375000 1.67444629375000 7.17637489687500 
 S -3.11016734375000 5.36114729375000 7.62259889687500 
