16

 C -2.81189876250000 1.71341314062500 5.28961135000000 
 C -3.29915776250000 5.05246014062500 5.60044335000000 
 C -3.98803976250000 1.10482814062500 4.76332735000000 
 C -4.49809276250000 4.65902014062500 4.88894335000000 
 N -1.94147476250000 2.00393014062500 4.35416235000000 
 N -2.30065976250000 5.36501914062500 4.77125935000000 
 N -3.88054176250000 0.807295140624999 3.49288335000000 
 N -4.36163676250000 4.55484814062500 3.55955235000000 
 N -4.24643876250000 1.07657014062500 7.35583435000000 
 N -5.05579976250000 4.45756014062500 7.47197635000000 
 S -5.09015176250000 0.566422140624999 6.03142835000000 
 S -5.77576076250000 3.98575714062500 6.02769735000000 
 S -2.40298076250000 1.39005314062500 2.87449635000000 
 S -2.80398976250000 5.04737414062500 3.22528535000000 
 S -2.77625476250000 1.75418914062500 7.05917535000000 
 S -3.48025276250000 4.94920014062500 7.34286035000000 
