16

 C -3.23655308750000 1.27508980625000 5.31216668125000 
 C -2.91598708750000 5.23886080625000 5.33390968125000 
 C -4.48531208750000 0.935077806249998 4.75472268125000 
 C -4.14815508750000 4.87747880625000 4.64519868125000 
 N -2.20165008750000 1.19396680625000 4.48316568125000 
 N -1.83195508750000 5.43062380625000 4.57693968125000 
 N -4.40475608750000 0.556643806249998 3.46866068125000 
 N -3.91965508750000 4.61312480625000 3.34585268125000 
 N -4.86707508750000 1.27232680625000 7.29620168125000 
 N -4.66067908750000 4.84498180625000 7.23551968125000 
 S -5.76658808750000 0.903477806249998 5.93402668125000 
 S -5.41466108750000 4.48011180625000 5.78825768125000 
 S -2.78076808750000 0.637905806249998 3.03580068125000 
 S -2.28469708750000 4.93461780625000 3.06385768125000 
 S -3.26545008750000 1.57897680625000 6.99638668125000 
 S -3.11985808750000 5.47596180625000 7.13683368125000 
