16

 C -3.41902680312500 1.82352565312500 5.57958950937500 
 C -2.91073680312500 5.15053565312500 5.49945950937500 
 C -4.61676680312500 1.28616265312500 4.91954550937500 
 C -4.19178580312500 4.90716665312500 4.94478350937500 
 N -2.37663080312500 2.01771265312500 4.80603050937500 
 N -1.92296980312500 5.21924065312500 4.61006950937500 
 N -4.40572180312500 0.964062653125002 3.64555350937500 
 N -4.23854280312500 4.71867865312500 3.60756850937500 
 N -5.08536980312500 1.28457065312500 7.47189050937500 
 N -4.60333780312500 4.92726865312500 7.43587550937500 
 S -5.97602980312500 1.16707565312500 6.05553350937500 
 S -5.47493280312500 4.82296965312500 6.04142050937500 
 S -2.81565680312500 1.41673165312500 3.35043450937500 
 S -2.65213480312500 5.01145065312500 3.14870150937500 
 S -3.52540180312500 1.85455365312500 7.32842150937500 
 S -3.05253780312500 5.27688365312500 7.27857850937500 
