16

 C -3.20721047812500 1.74645635937500 5.67564110937500 
 C -2.99047847812500 5.12740835937500 5.45760910937500 
 C -4.44106947812500 1.29582035937500 5.04121610937500 
 C -4.22114847812500 4.80032935937500 4.82288510937500 
 N -2.22840547812500 1.81557635937500 4.82242910937500 
 N -1.91284647812500 5.31937435937500 4.67724210937500 
 N -4.38857847812500 1.02507035937500 3.75823910937500 
 N -4.09208647812500 4.76444235937500 3.46501710937500 
 N -5.05536147812500 1.35408235937500 7.48974010937500 
 N -4.67025647812500 5.04999235937500 7.44151710937500 
 S -5.81423647812500 1.08360735937500 6.02157410937500 
 S -5.56330747812500 4.67333835937500 6.03434110937500 
 S -2.85065247812500 1.40858035937500 3.24517410937500 
 S -2.49938047812500 5.06868235937500 3.09710410937500 
 S -3.48422347812500 1.87940735937500 7.41592510937500 
 S -2.95189247812500 5.28148835937500 7.17322910937500 
