16

 C -3.02405013437500 1.24954320937500 5.71236200937500 
 C -3.20716613437500 5.32406520937500 5.38991100937500 
 C -4.16686313437500 0.688965209375001 5.00871900937500 
 C -4.25005713437500 4.46455620937500 4.89436600937500 
 N -2.05587113437500 1.52268120937500 4.86074200937500 
 N -2.23381913437500 5.57822120937500 4.48457800937500 
 N -4.01754613437500 0.495815209375001 3.68029500937500 
 N -3.97751613437500 3.86079420937500 3.71706800937500 
 N -4.89173813437500 1.05068220937500 7.43072300937500 
 N -4.98147513437500 5.11959620937500 7.21592400937500 
 S -5.50259013437500 0.333656209375001 6.01646400937500 
 S -5.51656813437500 4.12152220937500 6.04987600937500 
 S -2.44951513437500 0.927443209375001 3.35548900937500 
 S -2.59258113437500 4.55717120937500 3.17287700937500 
 S -3.27278713437500 1.62878220937500 7.39246700937500 
 S -3.57762413437500 5.88213120937500 6.95408900937500 
