16

 C -3.24176373437500 1.67987310000000 5.75582608125000 
 C -3.16221473437500 5.30479010000000 5.83774208125000 
 C -4.38737573437500 1.18102710000000 5.12549208125000 
 C -4.36352173437500 4.74966410000000 5.21092308125000 
 N -2.14098573437500 1.83507510000000 4.96440208125000 
 N -2.11530173437500 5.46893210000000 5.09806908125000 
 N -4.15672873437500 0.882775099999998 3.83072808125000 
 N -4.16600273437500 4.51194810000000 3.90854508125000 
 N -5.04934273437500 1.16632410000000 7.57200108125000 
 N -4.74231873437500 4.83420310000000 7.78154408125000 
 S -5.69464273437500 0.697100099999998 6.08501808125000 
 S -5.55994373437500 4.40025210000000 6.42863408125000 
 S -2.69292473437500 1.38405910000000 3.42802808125000 
 S -2.60739873437500 5.00687710000000 3.60044208125000 
 S -3.58016973437500 1.89755610000000 7.47956708125000 
 S -3.22542673437500 5.62020610000000 7.53783708125000 
