16

 C -3.49777524062500 1.64476790000000 5.37621792500000 
 C -3.27919424062500 4.89630790000000 5.77704692500000 
 C -4.64618524062500 1.09947390000000 4.63024792500000 
 C -4.53778224062500 4.70803890000000 5.11439092500000 
 N -2.54331924062500 2.08388290000000 4.57925092500000 
 N -2.22747024062500 5.08598390000000 4.90705792500000 
 N -4.44077324062500 1.00831590000000 3.32764992500000 
 N -4.41470624062500 4.44927290000000 3.79953792500000 
 N -5.26353324062500 0.945243900000001 7.05300492500000 
 N -5.07651424062500 4.97672290000000 7.63961492500000 
 S -6.03893224062500 0.695554900000001 5.58544492500000 
 S -5.85093124062500 4.67342590000000 6.15951592500000 
 S -2.84895924062500 1.56162890000000 3.06641492500000 
 S -2.87956524062500 4.77054190000000 3.40098092500000 
 S -3.77711124062500 1.73167190000000 7.04284692500000 
 S -3.42216624062500 5.16448990000000 7.49648892500000 
