16

 C -3.10434870937500 1.46358812812500 5.36789964687500 
 C -3.40393470937500 5.26493612812500 5.26474764687500 
 C -4.26122170937500 0.784486128124998 4.88072864687500 
 C -4.41207270937500 4.43245512812500 4.64267164687500 
 N -2.14984570937500 1.72559412812500 4.47034464687500 
 N -2.45816270937500 5.67005212812500 4.43152264687500 
 N -4.22235070937500 0.374327128124998 3.62314264687500 
 N -4.18921570937500 4.08138612812500 3.37060364687500 
 N -4.77611070937500 1.30148812812500 7.41994564687500 
 N -5.16870870937500 4.92831812812500 7.03290164687500 
 S -5.54639670937500 0.578230128124997 6.15467064687500 
 S -5.70289070937500 4.10846712812500 5.69566664687500 
 S -2.81593670937500 0.996436128124998 3.05501264687500 
 S -2.74313170937500 4.91652812812500 2.98533264687500 
 S -3.23322970937500 1.81020212812500 7.19885364687500 
 S -3.66687870937500 5.61662112812500 6.92004464687500 
