16

 C -3.04130264687500 1.25354841562500 5.55166630312500 
 C -2.97104564687500 5.24540541562500 5.51590830312500 
 C -4.20653764687500 0.922077415625000 4.74905030312500 
 C -4.21860464687500 4.94432741562500 4.85467230312500 
 N -1.88868564687500 1.27813241562500 4.87714630312500 
 N -1.89656764687500 5.20711741562500 4.69145630312500 
 N -3.91947064687500 0.852530415625000 3.46958930312500 
 N -4.07301264687500 4.68357641562500 3.57600230312500 
 N -4.91506264687500 1.31670741562500 7.15856730312500 
 N -4.77298864687500 5.23316641562500 7.37817430312500 
 S -5.62803564687500 0.720442415625000 5.81909930312500 
 S -5.59127364687500 4.88083141562500 5.89753730312500 
 S -2.29565164687500 1.03276841562500 3.24536430312500 
 S -2.49352864687500 4.86011641562500 3.12337330312500 
 S -3.28196364687500 1.48803341562500 7.20620730312500 
 S -3.07871964687500 5.48617641562500 7.26401730312500 
