16

 C -3.05222809062500 1.90848617812500 5.79339710625000 
 C -3.11056209062500 5.36288317812500 5.68049610625000 
 C -4.31873009062500 1.67311417812500 5.13149410625000 
 C -4.36834809062500 5.09444417812500 5.03940310625000 
 N -2.02096009062500 2.01868317812500 4.97698910625000 
 N -2.12579809062500 5.51754717812500 4.77446910625000 
 N -4.28747909062500 1.46869417812500 3.84317110625000 
 N -4.35431709062500 4.80527417812500 3.73526110625000 
 N -4.71902809062500 1.38557117812500 7.61998210625000 
 N -4.80824209062500 5.06256717812500 7.58220710625000 
 S -5.61748209062500 1.45709517812500 6.23350310625000 
 S -5.63357509062500 4.80931017812500 6.17187610625000 
 S -2.64925009062500 1.67181717812500 3.46146510625000 
 S -2.75748009062500 5.16307317812500 3.29470610625000 
 S -3.15760009062500 1.76801817812500 7.51816710625000 
 S -3.16725809062500 5.32909817812500 7.43596710625000 
