16

 C -3.21712008750000 1.19500891562500 5.91245523437500 
 C -2.97526208750000 4.60784191562500 5.37351523437500 
 C -4.37656608750000 0.709023915625001 5.19739123437500 
 C -4.28158308750000 4.54285191562500 4.78153623437500 
 N -2.16590708750000 1.57599491562500 5.12889423437500 
 N -2.03062208750000 4.82952991562500 4.45278923437500 
 N -4.27394208750000 0.712457915625001 3.85210223437500 
 N -4.32248908750000 4.47158991562500 3.44887923437500 
 N -4.91981208750000 0.482520915625001 7.71070223437500 
 N -4.60027408750000 4.55727091562500 7.34428923437500 
 S -5.65756608750000 0.231021915625001 6.22755423437500 
 S -5.51887408750000 4.46096791562500 5.94485923437500 
 S -2.75986508750000 1.26573491562500 3.60623223437500 
 S -2.74950408750000 4.69819191562500 2.96384423437500 
 S -3.44647508750000 1.22858691562500 7.61224723437500 
 S -3.00313408750000 4.79413491562500 7.05479923437500 
