16

 C -3.09513713125000 1.81737792187500 5.78562869375000 
 C -3.03683613125000 5.25774392187500 5.65913469375000 
 C -4.37073013125000 1.54638492187500 5.13802869375000 
 C -4.30758413125000 4.93942592187500 5.03555769375000 
 N -2.08996513125000 1.79598192187500 4.91763769375000 
 N -2.05365313125000 5.45084292187500 4.80102869375000 
 N -4.33088513125000 1.55181192187500 3.79482469375000 
 N -4.28687713125000 4.98213292187500 3.70970669375000 
 N -4.80194113125000 1.48551592187500 7.67832169375000 
 N -4.84360413125000 4.99026692187500 7.57480369375000 
 S -5.69942013125000 1.33611992187500 6.23476469375000 
 S -5.65977213125000 4.70968292187500 6.14423169375000 
 S -2.69024213125000 1.68172692187500 3.33870369375000 
 S -2.70622013125000 5.26215992187500 3.28157369375000 
 S -3.20246813125000 1.87324792187500 7.50257169375000 
 S -3.21382913125000 5.30549492187500 7.36512969375000 
