16

 C -3.16352113437500 1.54651661250000 5.42357379375000 
 C -3.09073513437500 5.29465861250000 5.75004879375000 
 C -4.31838113437500 0.965766612500002 4.76404279375000 
 C -4.33313013437500 4.89414361250000 5.16695079375000 
 N -2.24976813437500 1.95333261250000 4.55762979375000 
 N -2.07496513437500 5.47811461250000 4.91962979375000 
 N -4.29890313437500 0.834599612500003 3.45698179375000 
 N -4.26907513437500 4.85665561250000 3.85463279375000 
 N -4.93947413437500 0.888055612500003 7.22105579375000 
 N -4.57653213437499 4.99189561250000 7.88698579375000 
 S -5.49949013437500 0.315278612500003 5.77618879375000 
 S -5.50060613437500 4.74089361250000 6.48592979375000 
 S -2.74300313437500 1.38409161250000 3.03162479375000 
 S -2.65216913437500 5.18979961250000 3.42109879375000 
 S -3.45035513437500 1.60979461250000 7.22565979375000 
 S -3.02323113437500 5.45220561250000 7.40780479375000 
