16

 C -2.96727750625000 1.36083852187500 5.27534600625000 
 C -3.13710150625000 5.09866852187499 5.49515700625000 
 C -4.24070050625000 1.05616052187500 4.72164400625000 
 C -4.31815350625000 4.65184552187500 4.80891300625000 
 N -2.02425350625000 1.64473852187500 4.38585800625000 
 N -2.09683950625000 5.39199252187499 4.69378000625000 
 N -4.23357550625000 0.953035521874996 3.41727300625000 
 N -4.16037650625000 4.54289152187500 3.49135600625000 
 N -4.52437750625000 1.15100952187500 7.28979300625000 
 N -5.02160850625000 4.76139052187500 7.24628100625000 
 S -5.46612650625000 0.907194521874995 5.94124900625000 
 S -5.67439250625000 4.19194852187499 5.81087800625000 
 S -2.64179650625000 1.30377352187500 2.93767000625000 
 S -2.61709150625000 5.08869452187500 3.16753500625000 
 S -2.95170550625000 1.60058252187500 6.96805700625000 
 S -3.42367150625000 5.23299252187500 7.18583100625000 
