16

 C -3.50839962500000 1.50412495000000 5.52492562500000 
 C -2.94930562500000 5.20393295000000 5.50935262500000 
 C -4.47377562500000 0.629249950000002 4.93110162500000 
 C -4.17853362500000 4.86390995000000 4.81890662500000 
 N -2.46940662500000 1.76059995000000 4.75864962500000 
 N -1.90364662500000 5.24729195000000 4.68737162500000 
 N -4.16913962500000 0.220864950000002 3.69220062500000 
 N -4.01830762500000 4.59384095000000 3.49852262500000 
 N -5.15953362500000 1.02819195000000 7.33932862500000 
 N -4.79889762500000 4.97452795000000 7.26897562500000 
 S -5.79960662500000 0.282471950000001 6.02775662500000 
 S -5.59163662500000 4.86882595000000 5.76346762500000 
 S -2.71749462500000 1.01031495000000 3.26906662500000 
 S -2.47371462500000 4.85489395000000 3.10015862500000 
 S -3.72754062500000 1.82870995000000 7.19318962500000 
 S -3.15488762500000 5.45701895000000 7.22023762500000 
