16

 C -3.20798174375000 1.52138511562500 5.56949190312500 
 C -3.05713574375000 5.29667111562500 5.62199090312500 
 C -4.39137774375000 1.15755011562500 4.77304390312500 
 C -4.35250474375000 5.04840211562500 4.95044990312500 
 N -2.17426474375000 1.80179011562500 4.79534090312500 
 N -2.05640174375000 5.45184411562500 4.77968890312500 
 N -4.17255074375000 1.20162811562500 3.44532890312500 
 N -4.22839574375000 4.81306911562500 3.63931590312500 
 N -4.98752474375000 0.642277115624999 7.25264090312500 
 N -4.80364674375000 5.03437411562500 7.51384890312500 
 S -5.72620774375000 0.693012115624999 5.74410790312500 
 S -5.67851874375000 4.98264511562500 6.05929290312500 
 S -2.59974674375000 1.68164211562500 3.24373290312500 
 S -2.61831274375000 5.02767411562500 3.27057390312500 
 S -3.53589174375000 1.40521311562500 7.32154890312500 
 S -3.12480974375000 5.57880111562500 7.39297390312500 
