16

 C -3.10512845937500 1.39232307500000 5.42293207500000 
 C -3.48373245937500 5.22408107500000 5.37809307500000 
 C -4.37846345937500 1.03835007500000 4.90062807500000 
 C -4.59189445937500 4.57621107500000 4.80932407500000 
 N -2.13831845937500 1.42344207500000 4.46738007500000 
 N -2.50459545937500 5.52536407500000 4.50669007500000 
 N -4.35777245937500 0.765574074999997 3.58380507500000 
 N -4.46510345937500 4.38915407500000 3.51865307500000 
 N -4.80868145937500 1.14163807500000 7.46950807500000 
 N -4.87925245937500 4.51464107500000 7.32937007500000 
 S -5.63831845937500 0.934082074999997 6.02128907500000 
 S -5.82434345937500 4.20887807500000 6.06481307500000 
 S -2.87777345937500 0.962644074999996 3.05756807500000 
 S -3.00817445937500 4.98037107500000 3.05632007500000 
 S -3.15967245937500 1.59250007500000 7.19838507500000 
 S -3.38800145937500 5.21323707500000 7.04044107500000 
