16

 C -2.82640555312500 1.48005553125000 5.43556719687500 
 C -3.40124955312500 5.16210653125000 5.28085719687500 
 C -4.06835355312500 1.07342553125000 4.73572219687500 
 C -4.51692055312500 4.46503753125000 4.64366719687500 
 N -1.79051655312500 1.47895953125000 4.60004219687500 
 N -2.37542355312500 5.24168353125000 4.44615719687500 
 N -3.91733755312500 0.794668531250002 3.39060919687500 
 N -4.30146255312500 3.91134653125000 3.45223419687500 
 N -4.73714555312500 1.37103753125000 7.21859219687500 
 N -5.28912855312500 5.15767653125000 7.06013519687500 
 S -5.50151255312500 0.872138531250002 5.78718719687500 
 S -5.77088455312500 4.24412953125000 5.77371519687500 
 S -2.36741455312500 1.20635753125000 3.08118119687500 
 S -2.74083755312500 4.43144853125000 3.07947619687500 
 S -3.12661955312500 1.79918353125000 7.15064419687500 
 S -3.81142455312500 5.91921653125000 6.79686019687500 
