16

 C -3.28071213750000 1.47209811875000 5.59422696562500 
 C -3.37094713750000 5.29907511875000 5.65943596562500 
 C -4.52741213750000 1.10458711875000 5.00249596562500 
 C -4.55460813750000 4.72399811875000 5.03847396562500 
 N -2.37795813750000 1.79241311875000 4.65365996562500 
 N -2.39425813750000 5.69458311875000 4.86787396562500 
 N -4.59313513750000 1.10334811875000 3.66315296562500 
 N -4.40427913750000 4.52406111875000 3.75450596562500 
 N -4.87445813750000 1.09515111875000 7.54101296562500 
 N -5.07278313750000 4.77781711875000 7.50811396562500 
 S -5.78234213750000 0.886575118749997 6.12859096562500 
 S -5.79129413750000 4.29919211875000 6.08938296562500 
 S -3.01206213750000 1.47728711875000 3.18515796562500 
 S -2.94793413750000 5.18187911875000 3.34570396562500 
 S -3.27835113750000 1.57893711875000 7.37645496562500 
 S -3.51471413750000 5.40289011875000 7.41905096562500 
