16

 C -2.87889172187500 1.31794363437500 5.32621603750000 
 C -3.16379372187500 5.00922663437500 5.39545603750000 
 C -4.15724672187500 0.903468634374999 4.85027303750000 
 C -4.42256172187500 4.44828863437500 4.86340803750000 
 N -1.96800272187500 1.44642163437500 4.34586603750000 
 N -2.27380772187500 5.30383963437500 4.44561403750000 
 N -4.26639172187500 0.628596634375000 3.51564303750000 
 N -4.49460572187500 4.32077863437500 3.55622103750000 
 N -4.53114472187500 1.29478863437500 7.32341603750000 
 N -4.84138272187500 4.96195763437500 7.33236603750000 
 S -5.40203572187500 0.888945634375000 6.00463103750000 
 S -5.62353072187500 4.19633963437500 6.10813503750000 
 S -2.71731972187500 1.03037263437500 2.88817003750000 
 S -3.00353472187500 4.94910963437500 3.00531303750000 
 S -2.95687772187500 1.67719163437500 7.09075803750000 
 S -3.23116672187500 5.40727563437500 7.01653303750000 
