16

 C -3.43257849687500 1.29091500625000 5.46318434687500 
 C -3.28667449687500 5.14852100624999 5.87160634687500 
 C -4.58757849687500 0.851494006249995 4.71652734687500 
 C -4.46309949687500 4.72735400625000 5.16686234687500 
 N -2.41978049687500 1.58635400625000 4.68208734687500 
 N -2.28254649687500 5.32268200624999 5.01640934687500 
 N -4.49762349687500 0.903585006249995 3.42806334687500 
 N -4.43559849687500 4.77774400624999 3.81938234687500 
 N -5.26089949687500 0.982917006249996 7.18812834687500 
 N -4.96653449687500 4.77886900624999 7.68673634687500 
 S -5.87554449687500 0.394526006249995 5.74431834687500 
 S -5.73053649687500 4.35861800625000 6.27104534687500 
 S -2.91950049687500 1.26920000624999 3.10804834687500 
 S -2.89424149687500 5.14486500625000 3.47177434687500 
 S -3.59242249687500 1.31857800625000 7.17537634687500 
 S -3.39816349687500 5.25373800624999 7.61750434687500 
