16

 C -3.57714455625000 1.95943465625000 5.33414432187500 
 C -3.22197255625000 5.04476865625000 5.68602832187500 
 C -4.62780155625000 1.25571065625000 4.61956432187500 
 C -4.49093455625000 4.65886665625000 5.11128032187500 
 N -2.47665855625000 2.10229865625000 4.58847732187500 
 N -2.16712855625000 5.06548765625000 4.86054732187500 
 N -4.32840055625000 0.884658656249997 3.31516932187500 
 N -4.42254155625000 4.56254065625000 3.77704432187500 
 N -5.36120955625000 1.24592365625000 7.10189032187500 
 N -5.00289855625000 4.99778465625000 7.59859532187500 
 S -5.95213055625000 0.765299656249997 5.61330132187500 
 S -5.86336955625000 4.76149965625000 6.18241032187500 
 S -2.83413055625000 1.56770465625000 3.05840732187500 
 S -2.77399955625000 4.82545865625000 3.33581032187500 
 S -3.84346855625000 1.81384565625000 7.08640832187500 
 S -3.36598055625000 5.19482665625000 7.42122032187500 
