16

 C -2.90024680000000 1.72364111250000 5.43928038125000 
 C -3.20859580000000 5.09966511250000 5.61256638125000 
 C -4.20563480000000 1.34979611250000 4.87284738125000 
 C -4.42582280000000 4.64419011250000 5.01805938125000 
 N -1.90824180000000 1.74111611250000 4.54707638125000 
 N -2.14454080000000 5.25208311250000 4.79484538125000 
 N -4.17953280000000 1.06344911250000 3.56535938125000 
 N -4.31223380000000 4.57244211250000 3.68466238125000 
 N -4.54587080000000 1.88343911250000 7.35637638125000 
 N -4.93085980000000 4.81943911250000 7.54133638125000 
 S -5.47123980000000 1.25569811250000 6.06854338125000 
 S -5.83624780000000 4.50973611250000 6.13069638125000 
 S -2.63063980000000 1.48147211250000 3.09997638125000 
 S -2.73789280000000 5.01674311250000 3.31550338125000 
 S -2.84761780000000 1.99739311250000 7.10302138125000 
 S -3.33916780000000 5.23563011250000 7.29548438125000 
