16

 C -3.03609137812500 1.45419613125000 5.57823608125000 
 C -3.29868637812500 5.16511913125000 5.20979408125000 
 C -4.21871837812500 1.04379513125000 4.78668408125000 
 C -4.37662637812500 4.44723113125000 4.58536008125000 
 N -1.93472837812500 1.57263613125000 4.85422208125000 
 N -2.18451037812500 5.19992313125000 4.44757508125000 
 N -3.94784737812500 0.887800131250002 3.50672608125000 
 N -4.09787137812500 3.99163313125000 3.36191208125000 
 N -5.02439237812500 1.13164613125000 7.20509008125000 
 N -5.31177237812500 5.16717313125000 6.86192008125000 
 S -5.63428037812500 0.820292131250002 5.74390108125000 
 S -5.77100337812500 4.10923213125000 5.65268808125000 
 S -2.37497637812500 1.14254313125000 3.27742608125000 
 S -2.59210337812500 4.39893813125000 3.03268008125000 
 S -3.45334037812500 1.66921113125000 7.26727508125000 
 S -3.77538837812500 5.85021113125000 6.73584508125000 
