16

 C -3.10615756250000 0.908224343749999 5.60782672500000 
 C -3.29474156250000 4.86105634375000 5.24211472500000 
 C -4.40382056250000 0.717624343749999 4.88237272500000 
 C -4.44552156250000 4.25739534375000 4.65051272500000 
 N -2.10089756250000 1.16693834375000 4.80646072500000 
 N -2.24304356250000 5.06492234375000 4.46759072500000 
 N -4.32027856250000 0.801565343749999 3.54856172500000 
 N -4.29541356250000 4.15972034375000 3.32677272500000 
 N -4.93908356250000 0.727917343749999 7.42408972500000 
 N -5.06221556250000 4.69272034375000 7.17936372500000 
 S -5.70964556250000 0.477969343749999 5.95372372500000 
 S -5.80260856250000 4.08689234375000 5.74852972500000 
 S -2.68699656250000 0.951453343749999 3.28883272500000 
 S -2.75906056250000 4.69350634375000 2.96727172500000 
 S -3.24639256250000 0.871890343749999 7.37513472500000 
 S -3.51831956250000 5.34853834375000 6.88085472500000 
