16

 C -2.90411058750000 2.11823507812500 5.49185860937500 
 C -3.11208158750000 5.23769907812500 5.34038660937500 
 C -4.11629358750000 1.60230407812500 4.86875760937500 
 C -4.30278458750000 4.75702007812500 4.61657260937500 
 N -1.86429558750000 2.28890507812500 4.66781060937500 
 N -2.09279158750000 5.64114507812500 4.58151660937500 
 N -4.00953058750000 1.41159907812500 3.54709560937500 
 N -4.11149158750000 4.70945907812500 3.30659860937500 
 N -4.63960858750000 1.77216907812500 7.37701960937500 
 N -4.91147158750000 5.07928207812500 7.15701160937500 
 S -5.43196458750000 1.41328507812500 5.94061960937500 
 S -5.67601158750000 4.57784107812500 5.71795160937500 
 S -2.50222358750000 1.82681807812500 3.15199960937500 
 S -2.54456458750000 5.28426107812500 3.03242760937500 
 S -3.00669458750000 2.24315107812500 7.24460560937500 
 S -3.28390458750000 5.32628807812500 7.07015960937500 
