16

 C -3.29034063437500 1.29371679062500 5.57072675937500 
 C -3.25562463437500 5.11913379062500 5.29212975937500 
 C -4.52118663437500 1.11766179062500 4.87215775937500 
 C -4.47671963437500 4.64622279062500 4.72251975937500 
 N -2.24146063437500 1.24231879062500 4.75860875937500 
 N -2.19846163437500 5.07742679062500 4.45355675937500 
 N -4.42472563437500 1.02644579062500 3.55872475937500 
 N -4.35702463437500 4.20829079062500 3.47314275937500 
 N -5.11394863437500 1.25982079062500 7.36475975937500 
 N -4.99355063437500 4.92286879062500 7.18036175937500 
 S -5.93022263437500 1.04596479062500 5.90319675937500 
 S -5.82008563437500 4.49569479062500 5.76901775937500 
 S -2.77424063437500 0.963747790625002 3.21378275937500 
 S -2.80607763437500 4.43652879062500 2.99549775937500 
 S -3.46282063437500 1.40565379062500 7.25211475937500 
 S -3.43726463437500 5.46887679062500 6.98024575937500 
