16

 C -3.22834131875000 1.29777413750000 5.27441414687500 
 C -2.95796531875000 5.32673813750000 5.34783114687500 
 C -4.47555131875000 0.944780137500001 4.68744614687500 
 C -4.11633731875000 4.68620413750000 4.75919614687500 
 N -2.18663931875000 1.23201113750000 4.44198514687500 
 N -1.86285931875000 5.35169013750000 4.60161314687500 
 N -4.37729031875000 0.581965137500001 3.39115514687500 
 N -3.92562731875000 4.48936013750000 3.45754614687500 
 N -4.97921731875000 1.58056913750000 7.16183414687500 
 N -4.72178431875000 4.98143913750000 7.21108614687500 
 S -5.82523531875000 0.927039137500001 5.85067714687500 
 S -5.42343531875000 4.37079513750000 5.81759314687500 
 S -2.76436931875000 0.683243137500001 2.99093514687500 
 S -2.38150531875000 4.89055013750000 3.07871614687500 
 S -3.33307731875000 1.55289813750000 6.99705214687500 
 S -3.13425831875000 5.51831013750000 7.06024014687500 
