16

 C -3.13124724687500 1.22700546250000 5.67237257187500 
 C -3.37693924687500 5.25955746250000 5.41206157187500 
 C -4.26760524687500 0.583427462500000 5.04086557187500 
 C -4.45028724687500 4.48351246250000 4.82860357187500 
 N -2.11561824687500 1.65041346250000 4.87802357187500 
 N -2.46096524687500 5.66969046250000 4.53869757187500 
 N -4.04981824687500 0.448994462500001 3.73188557187500 
 N -4.15612224687500 4.07013746250000 3.61055657187500 
 N -4.85682524687500 0.932527462500000 7.54801357187500 
 N -5.16942724687500 4.99319246250000 7.17817457187500 
 S -5.57078824687500 0.279957462500001 6.13820057187500 
 S -5.78922924687500 4.13052246250000 5.91494057187500 
 S -2.59394324687500 1.05334446250000 3.36326257187500 
 S -2.73815824687500 4.79835746250000 3.19142657187500 
 S -3.36666324687500 1.63131746250000 7.32503857187500 
 S -3.73529024687500 5.78524446250000 6.95824557187500 
