16

 C -3.04312584062500 1.51383805625000 5.70337377500000 
 C -3.10760284062500 4.81852605625000 5.63897777500000 
 C -4.21642584062500 1.18087905625000 4.92225977500000 
 C -4.24871584062500 4.40968405625000 4.79901377500000 
 N -1.85919584062500 1.52807505625000 5.05330277500000 
 N -1.99903684062500 4.87809205625000 4.90246277500000 
 N -3.88051084062500 0.971460056250000 3.64965977500000 
 N -4.04056184062500 4.02622505625000 3.55055177500000 
 N -4.95762384062500 1.33432105625000 7.44537577500000 
 N -5.22512484062500 4.75776005625000 7.12508577500000 
 S -5.68838884062500 1.12977605625000 5.99514277500000 
 S -5.75991784062500 4.37914505625000 5.62238577500000 
 S -2.26514484062500 1.33127305625000 3.47249977500000 
 S -2.44757384062500 4.33896305625000 3.37678677500000 
 S -3.26924184062500 1.57131705625000 7.40355777500000 
 S -3.54163284062500 4.99945105625000 7.31100577500000 
