16

 C -2.94035702812500 1.53612170000000 5.33933290312500 
 C -3.27012002812500 5.30376270000000 5.89967490312500 
 C -4.16271102812500 1.04832770000000 4.71908690312500 
 C -4.44900502812500 4.87223070000000 5.16026490312500 
 N -1.90763702812500 1.52995270000000 4.48648590312500 
 N -2.21004902812500 5.48493870000000 5.18910390312500 
 N -4.07316402812500 0.764503699999999 3.41573890312500 
 N -4.22302102812500 4.72205870000000 3.87565290312500 
 N -4.84157502812500 1.30821270000000 7.12406690312500 
 N -5.06286002812500 5.07834470000000 7.69991590312500 
 S -5.49224702812500 0.688187699999999 5.73072090312500 
 S -5.79575502812500 4.76929470000000 6.27356190312500 
 S -2.55015902812500 1.17025270000000 3.00107890312500 
 S -2.54541902812500 5.11840870000000 3.67735990312500 
 S -3.27090702812500 1.78923170000000 7.11300290312500 
 S -3.47169902812500 5.51336970000000 7.58215690312500 
