16

 C -2.95551697812500 1.47770078437500 5.26393803750000 
 C -3.25749897812500 5.15014178437500 5.47200603750000 
 C -4.22829097812500 1.06050278437500 4.73762103750000 
 C -4.40496297812500 4.66973978437500 4.70922703750000 
 N -1.95045597812500 1.58183778437500 4.39014403750000 
 N -2.18510297812500 5.41923178437500 4.76960603750000 
 N -4.23444197812500 0.902543784375000 3.39947603750000 
 N -4.14649597812500 4.54495978437500 3.41075503750000 
 N -4.52580597812500 1.14373278437500 7.35624103750000 
 N -5.03947597812500 4.75185678437500 7.26365403750000 
 S -5.46522797812500 0.847351784375000 6.04405103750000 
 S -5.73558497812500 4.24393678437500 5.78712903750000 
 S -2.67730597812500 1.30440278437500 2.86281003750000 
 S -2.60474697812500 5.14703978437500 3.16443903750000 
 S -2.98574297812500 1.57929878437500 7.01544003750000 
 S -3.42413297812500 5.23702578437500 7.21039803750000 
