16

 C -3.14212367187500 1.41966996562501 5.31251610000000 
 C -3.02671367187500 4.89762696562501 5.56425810000000 
 C -4.27072367187500 0.651777965625008 4.71979110000000 
 C -4.36094667187500 4.72579796562501 5.01898710000000 
 N -2.14956767187500 1.71008296562501 4.46005210000000 
 N -2.04517067187500 4.93248596562501 4.67073010000000 
 N -4.10821267187500 0.290603965625007 3.46136310000000 
 N -4.39751567187500 4.57121996562501 3.70745910000000 
 N -4.93120567187500 1.05593996562501 7.14158410000000 
 N -4.68654367187500 4.87310496562501 7.56517510000000 
 S -5.52629967187500 0.262613965625007 5.81229210000000 
 S -5.56103267187500 4.41211496562501 6.23946510000000 
 S -2.70811167187500 1.02106796562501 2.98089310000000 
 S -2.82024367187500 4.77862896562501 3.17486710000000 
 S -3.35809667187500 1.67749296562501 7.02406210000000 
 S -3.05271567187500 5.10204596562501 7.24210410000000 
