16

 C -3.20039459062500 1.06612089687500 5.43423099687500 
 C -2.84587059062500 5.13757989687500 5.43078599687500 
 C -4.49943859062500 0.666227896875001 4.92462099687500 
 C -3.99786859062500 4.72790689687500 4.68052399687500 
 N -2.21970359062500 1.18699789687500 4.53331899687500 
 N -1.72908859062500 5.33488889687500 4.72803399687500 
 N -4.54137959062500 0.463078896875001 3.58476799687500 
 N -3.80487159062500 4.84718889687500 3.36134399687500 
 N -4.81552659062500 1.32011989687500 7.46285299687500 
 N -4.76187359062500 5.04227189687500 7.17512999687500 
 S -5.69657559062500 0.655810896875001 6.22825699687500 
 S -5.38957059062500 4.66692389687500 5.70630199687500 
 S -2.99630059062500 0.811548896875001 3.09866399687500 
 S -2.16653459062500 5.16770489687500 3.10831499687500 
 S -3.15106159062500 1.37796089687500 7.16610799687500 
 S -3.09208859062500 5.17929689687500 7.19949499687500 
