16

 C -2.90983616875000 1.57634855000000 5.41542336562500 
 C -3.49185416875000 5.07008955000000 5.17170336562500 
 C -4.03008116875000 0.982780549999999 4.69682336562500 
 C -4.58208016875000 4.31882855000000 4.63349936562500 
 N -1.83189316875000 1.68760355000000 4.63532536562500 
 N -2.37506016875000 5.13213355000000 4.43216836562500 
 N -3.92187716875000 0.840700549999999 3.38233136562500 
 N -4.37962716875000 3.94644555000000 3.37539236562500 
 N -4.78762916875000 1.42109555000000 7.22316936562500 
 N -5.36597616875000 5.09823755000000 6.89207936562500 
 S -5.37948016875000 0.786442549999999 5.81835136562500 
 S -5.95605616875000 4.08673655000000 5.75908336562500 
 S -2.31708816875000 1.11268255000000 3.16090936562500 
 S -2.77288016875000 4.41456355000000 3.00239536562500 
 S -3.27231816875000 2.04892755000000 7.06438136562500 
 S -3.86067716875000 5.71653655000000 6.72506136562500 
