16

 C -2.93688611250000 1.41593614687500 5.32888397187500 
 C -3.08700611250000 5.10949414687500 5.50142697187500 
 C -4.23713111250000 1.00094314687500 4.69818297187500 
 C -4.22996011250000 4.54321614687500 4.85495997187500 
 N -1.98913111250000 1.65671114687500 4.44810997187500 
 N -2.05969411250000 5.37164714687500 4.67978797187500 
 N -4.19623411250000 0.980309146875000 3.35813897187500 
 N -4.16697311250000 4.57844814687500 3.53881697187500 
 N -4.57188811250000 1.16627314687500 7.21757297187500 
 N -4.97884611250000 4.75235114687500 7.24324097187500 
 S -5.48513411250000 0.961969146875001 5.84785597187500 
 S -5.58864311250000 4.18069314687500 5.84400697187500 
 S -2.65539511250000 1.30258314687500 2.96489297187500 
 S -2.65115311250000 4.99375614687500 3.12848697187500 
 S -2.95419611250000 1.61782214687500 7.00198297187500 
 S -3.41726511250000 5.23393914687500 7.20330797187500 
