16

 C -3.27201645937500 1.44295778437500 5.34691202812500 
 C -3.27198345937500 5.34464978437500 5.53765502812500 
 C -4.45940345937500 0.870958784374997 4.70959102812500 
 C -4.41081745937500 4.73034978437500 4.95262002812500 
 N -2.38505445937500 1.80023678437500 4.45602702812500 
 N -2.36200045937500 5.73014778437500 4.63456502812500 
 N -4.31723145937500 0.715098784374997 3.39963002812500 
 N -4.29965345937500 4.48968278437500 3.64781702812500 
 N -4.87692945937500 0.989242784374997 7.28767802812500 
 N -4.94039345937500 4.91627778437500 7.39293702812500 
 S -5.65918145937500 0.457390784374997 5.93823702812500 
 S -5.73211845937500 4.48035378437500 5.99136302812500 
 S -2.84573145937500 1.45167078437500 2.93690602812500 
 S -2.92157645937500 5.24326478437500 3.15456102812500 
 S -3.34694045937500 1.55854378437500 7.06716402812500 
 S -3.31947945937500 5.41490378437500 7.27556002812500 
