16

 C -3.21702964687500 1.17510064375000 5.27415473750000 
 C -2.96503264687500 5.06063764375000 5.40545073750000 
 C -4.48043864687500 0.739916643750003 4.66441173750000 
 C -4.07173664687500 4.34841264375000 4.82913073750000 
 N -2.17770064687500 1.21743264375000 4.43114073750000 
 N -1.94867964687500 5.30519964375000 4.57107973750000 
 N -4.37903064687500 0.554788643750002 3.35321673750000 
 N -3.92144864687500 4.17982464375000 3.52423873750000 
 N -5.10583764687500 1.60092064375000 6.98166873750000 
 N -4.84175164687500 5.14561064375000 7.22102373750000 
 S -5.88580164687500 0.968805643750002 5.62693773750000 
 S -5.46790664687500 4.38695464375000 5.86114773750000 
 S -2.82729664687500 0.878791643750002 2.93822173750000 
 S -2.44397364687500 4.77645964375000 3.04670273750000 
 S -3.44848264687500 1.66491864375000 6.93898073750000 
 S -3.22195964687500 5.61040164375000 7.10343273750000 
