16

 C -3.44593308437500 1.36105593750000 5.47424760625000 
 C -3.12538408437500 4.89195793750000 5.03092460625000 
 C -4.47703308437500 0.629403937500003 4.81594360625000 
 C -4.32866808437500 4.40454293750000 4.34649360625000 
 N -2.48809408437500 1.69769493750000 4.64090460625000 
 N -2.10814108437500 5.14386393750000 4.20235660625000 
 N -4.28740808437500 0.445646937500003 3.52791360625000 
 N -4.22372608437500 4.38719493750000 3.04321860625000 
 N -5.14176108437500 0.832241937500003 7.30665860625000 
 N -4.98278508437500 4.71348593750000 6.82500760625000 
 S -5.79651408437500 0.329517937500003 5.88710460625000 
 S -5.59019908437500 4.00367893750000 5.45727260625000 
 S -2.86136808437500 1.19163093750000 3.08342660625000 
 S -2.70416308437500 4.82643893750000 2.61328760625000 
 S -3.59310508437500 1.43581693750000 7.18730760625000 
 S -3.35978308437500 5.21194793750000 6.74053160625000 
