16

 C -3.19090465625000 1.22394543437500 5.31975890937500 
 C -2.84461065625000 5.29102043437500 5.59626590937500 
 C -4.34015365625000 0.672046434374995 4.63111290937500 
 C -4.17163465625000 5.01052543437500 5.09218790937500 
 N -2.15135065625000 1.64185443437500 4.64932590937500 
 N -1.91518165625000 5.31587143437500 4.62147990937500 
 N -4.11118765625000 0.711416434374995 3.32619890937500 
 N -4.31390765625000 4.89748343437500 3.73847990937500 
 N -4.84572165625000 0.829891434374995 7.17286790937500 
 N -4.66299865625000 4.91188743437500 7.62293690937500 
 S -5.63798365625000 0.309555434374996 5.81697190937500 
 S -5.48726665625000 4.91742843437500 6.16455290937500 
 S -2.58068665625000 1.40211443437500 3.09940090937500 
 S -2.79218765625000 5.01416743437500 3.21151890937500 
 S -3.37917965625000 1.52329743437500 7.04417390937500 
 S -3.00318865625000 5.42862843437500 7.35136690937500 
