16

 C -3.21136908437500 1.31365966875000 5.20015931875000 
 C -3.30263808437500 5.09791366875000 5.38569031875000 
 C -4.48352208437500 0.943835668750005 4.68518131875000 
 C -4.57307208437500 4.66481166875000 4.86739031875000 
 N -2.23698808437500 1.26943266875000 4.29464231875000 
 N -2.32758808437500 5.18079466875000 4.55144231875000 
 N -4.50228808437500 0.496654668750004 3.43713731875000 
 N -4.48647908437500 4.47209766875000 3.56097531875000 
 N -4.96814508437500 1.11005966875000 7.19998631875000 
 N -4.78401108437500 4.83794066875000 7.41473331875000 
 S -5.76105908437500 0.807418668750005 5.75600831875000 
 S -5.77613408437500 4.56762966875000 6.14573631875000 
 S -2.96052108437500 0.758490668750005 2.84716931875000 
 S -2.89204108437500 4.78802466875000 3.07589331875000 
 S -3.35765408437500 1.48860666875000 6.96538131875000 
 S -3.26035308437500 5.27407766875000 7.05868631875000 
