16

 C -3.25397461562500 1.52053601562500 5.46609083125000 
 C -3.22392061562500 5.07530401562500 5.59929583125000 
 C -4.47324461562500 1.08596001562500 4.84439583125000 
 C -4.35215561562500 4.42656601562500 4.99247083125000 
 N -2.24796361562500 1.55808901562500 4.60286483125000 
 N -2.16688461562500 5.22805801562500 4.87196283125000 
 N -4.42455561562500 0.934785015625002 3.51737883125000 
 N -4.22797061562500 4.22995001562500 3.69019483125000 
 N -4.90232761562500 1.44184701562500 7.38978983125000 
 N -4.88626561562500 4.69837001562500 7.55009083125000 
 S -5.79398061562500 0.918216015625002 5.99253083125000 
 S -5.60308661562500 4.26069601562500 6.12798583125000 
 S -2.81882261562500 1.37298701562500 3.11682783125000 
 S -2.65200961562500 4.71498501562500 3.39636583125000 
 S -3.26515961562500 1.72748401562500 7.20204083125000 
 S -3.34526161562500 5.34616101562500 7.31440783125000 
