16

 C -3.46739952812500 1.81975699687500 5.60433662187500 
 C -2.87565852812500 5.15841099687500 5.51624962187500 
 C -4.63844652812500 1.25648699687500 4.91876862187500 
 C -4.17079352812500 4.91984799687500 4.93843262187500 
 N -2.40150552812500 2.06620499687500 4.82145762187500 
 N -1.89923852812500 5.22313799687500 4.62924662187500 
 N -4.43986652812500 0.990041996875000 3.62321762187500 
 N -4.25496952812500 4.74028899687500 3.64543062187500 
 N -5.07453252812500 1.30239999687500 7.45227362187500 
 N -4.64587352812500 4.91548099687500 7.46685162187500 
 S -6.00037752812500 1.17227499687500 6.06325662187500 
 S -5.49079652812500 4.85062099687500 6.04729962187500 
 S -2.80401152812500 1.41219299687500 3.35147662187500 
 S -2.70274652812500 4.98561299687500 3.14816262187500 
 S -3.54477052812500 1.83947899687500 7.28631062187500 
 S -3.03471752812500 5.28261299687500 7.29628962187500 
