16

 C -3.18355811562500 1.21192244687500 5.63803573750000 
 C -3.08455911562500 4.94502544687500 5.58367073750000 
 C -4.40948411562500 0.774673446875002 5.07398473750000 
 C -4.30341211562500 4.47615644687500 5.01207473750000 
 N -2.16116711562500 1.31372044687500 4.75133673750000 
 N -2.02287511562500 4.86733244687500 4.73974773750000 
 N -4.37746711562500 0.497198446875002 3.76924773750000 
 N -4.19183611562500 4.17077244687500 3.69934973750000 
 N -4.84691911562500 1.24903944687500 7.65706073750000 
 N -4.83532411562500 4.87861244687500 7.46054273750000 
 S -5.67649711562500 0.857151446875002 6.28595873750000 
 S -5.67844211562500 4.34664544687500 6.16041373750000 
 S -2.82182411562500 0.752041446875002 3.31046673750000 
 S -2.60080111562500 4.39708044687500 3.26479173750000 
 S -3.21126011562500 1.67871344687500 7.36630173750000 
 S -3.26275811562500 5.16370244687500 7.27302673750000 
