16

 C -3.10758795625000 1.68208111875000 5.53113923437500 
 C -3.08789795625000 5.04128311875000 5.52954623437500 
 C -4.43637495625000 1.53367411875000 4.97403323437500 
 C -4.32781495625000 4.67729711875000 4.87437923437500 
 N -2.11277095625000 1.73638511875000 4.61802523437500 
 N -2.09197895625000 5.36563611875000 4.70144223437500 
 N -4.49506195625000 1.59983011875000 3.65038623437500 
 N -4.24781395625000 4.79312111875000 3.54521323437500 
 N -4.76494695625000 1.57924511875000 7.49189723437500 
 N -4.79998995625000 4.46359311875000 7.46801823437500 
 S -5.71837495625000 1.49224411875000 6.14798123437500 
 S -5.66023095625000 4.33326711875000 6.05206623437500 
 S -2.98561395625000 1.60489211875000 3.15104423437500 
 S -2.71167695625000 5.14991011875000 3.17810723437500 
 S -3.11713195625000 1.63561611875000 7.29821823437500 
 S -3.14251695625000 4.89130611875000 7.22605123437500 
