16

 C -3.05871139687500 1.76865251562500 5.35239954062500 
 C -3.50988439687500 5.06326151562500 5.11157154062500 
 C -4.12495639687500 0.845119515624999 4.84349454062500 
 C -4.58588939687500 4.24881951562500 4.54622654062500 
 N -1.97859139687500 1.95877251562500 4.55716354062500 
 N -2.48810639687500 5.22420751562500 4.25528454062500 
 N -3.83823239687500 0.445349515624999 3.64062454062500 
 N -4.39491339687500 3.87466151562500 3.29649754062500 
 N -4.68513539687500 1.19950951562500 7.28429054062500 
 N -5.44055039687500 4.90299651562500 6.80236254062500 
 S -5.49901939687500 0.701156515624999 5.91791154062500 
 S -6.01178139687500 4.08857751562500 5.53627854062500 
 S -2.42346639687500 1.10208451562500 3.22216454062500 
 S -2.90974839687500 4.47843651562500 2.85787954062500 
 S -3.38071839687500 2.20458551562500 7.01144054062500 
 S -3.88955639687500 5.41586551562500 6.82431654062500 
