16

 C -3.13570519375000 1.64769464687500 5.43216720625000 
 C -3.07824219375000 5.09744364687500 5.60201320625000 
 C -4.39680419375000 1.26221764687500 4.81055120625000 
 C -4.25134519375000 4.51431264687500 4.96395520625000 
 N -2.16326419375000 1.85126164687500 4.56588820625000 
 N -2.02205619375000 5.17192964687500 4.74493020625000 
 N -4.36135619375000 1.27978164687500 3.48196920625000 
 N -4.17577219375000 4.37411564687500 3.61287420625000 
 N -4.95951019375000 1.23026964687500 7.34382620625000 
 N -4.87568619375000 4.66863264687500 7.44255120625000 
 S -5.73259219375000 0.933501646874999 5.85053820625000 
 S -5.65584919375000 4.42590364687500 6.03687920625000 
 S -2.77096419375000 1.54679864687500 3.04998320625000 
 S -2.58281419375000 4.71527264687500 3.22665220625000 
 S -3.38603419375000 1.69192164687500 7.11706520625000 
 S -3.35598719375000 5.33234664687500 7.34491920625000 
