16

 C -3.14453040625000 1.42064202500000 5.56023285625000 
 C -3.15860440625000 5.00262502500000 5.19239285625000 
 C -4.37684240625000 0.919723024999999 5.01696285625000 
 C -4.28178040625000 4.27247302500000 4.67129785625000 
 N -2.18558740625000 1.45528202500000 4.66829785625000 
 N -2.17940040625000 5.16664002500000 4.32271485625000 
 N -4.36369240625000 0.763546025000000 3.70113285625000 
 N -4.18279640625000 3.87019702500000 3.40198685625000 
 N -4.81962540625000 1.30743502500000 7.47432885625000 
 N -4.90306840625000 4.98090002500000 7.00332485625000 
 S -5.71881840625000 0.866800024999999 6.08434085625000 
 S -5.65674840625000 4.19086602500000 5.76104085625000 
 S -2.82433140625000 1.01408102500000 3.21895985625000 
 S -2.68291640625000 4.42369802500000 2.94405385625000 
 S -3.22114140625000 1.86219102500000 7.24765485625000 
 S -3.37608040625000 5.55780202500000 6.78715385625000 
