16

 C -3.19021017812500 1.35886342812500 5.36398240312500 
 C -3.20698817812500 5.04393542812500 5.42317140312500 
 C -4.34191417812500 0.558712428124998 4.87179340312500 
 C -4.49435217812500 4.66500542812500 4.93071640312500 
 N -2.22619617812500 1.54741842812500 4.48110040312500 
 N -2.20172917812500 5.06502342812500 4.54059240312500 
 N -4.16461817812500 0.317290428124998 3.57737640312500 
 N -4.43716417812500 4.36107342812500 3.63710440312500 
 N -4.86782017812500 1.25513142812500 7.37244840312500 
 N -4.79467117812500 4.87034342812500 7.46134840312500 
 S -5.56498017812500 0.374815428124998 6.14053340312500 
 S -5.76755517812500 4.70255242812500 6.13434540312500 
 S -2.70605217812500 0.874280428124999 3.04887540312500 
 S -2.91664317812500 4.70949042812500 3.09426540312500 
 S -3.39861717812500 1.89678742812500 7.01217640312500 
 S -3.27705717812500 5.34896242812500 7.09902240312500 
