16

 C -3.02557586875000 1.61219815312500 5.60072856875000 
 C -3.00462186875000 5.26988715312500 5.67811456875000 
 C -4.30477086875000 1.36685715312500 5.01826156875000 
 C -4.21731986875000 4.90889615312500 5.01136656875000 
 N -2.10570886875000 1.82192115312500 4.65076756875000 
 N -1.99508786875000 5.51756815312500 4.84108356875000 
 N -4.32986786875000 1.19441415312500 3.67077156875000 
 N -4.12162586875000 4.78978715312500 3.70170356875000 
 N -4.70311386875000 1.48326615312500 7.53134056875000 
 N -4.90323586875000 4.85307815312500 7.45334656875000 
 S -5.62021286875000 1.28963415312500 6.15133356875000 
 S -5.61478586875000 4.57395615312500 5.99561856875000 
 S -2.81218786875000 1.62197315312500 3.17692856875000 
 S -2.61437586875000 5.16241715312500 3.29143856875000 
 S -3.07776086875000 1.75059115312500 7.35116256875000 
 S -3.31266086875000 5.25878215312500 7.39754256875000 
