16

 C -3.05664381562500 1.33332061250000 5.27844448125000 
 C -3.22001781562500 5.13574061250000 5.65514848125000 
 C -4.35350081562500 0.942047612500002 4.73677148125000 
 C -4.46353681562500 4.71730861250000 5.08199348125000 
 N -2.10024881562500 1.20798461250000 4.38010948125000 
 N -2.22915481562500 5.33411561250000 4.76344548125000 
 N -4.38795281562500 0.605878612500002 3.47843348125000 
 N -4.40879281562500 4.57764961250000 3.77134048125000 
 N -4.78328881562500 1.56781961250000 7.12924448125000 
 N -4.92303581562500 4.85082261250000 7.63380748125000 
 S -5.70861381562500 1.01452661250000 5.90267648125000 
 S -5.70179881562500 4.52384661250000 6.22216548125000 
 S -2.81995481562500 0.807735612500001 2.87983548125000 
 S -2.82718981562500 4.98358261250000 3.29684848125000 
 S -3.16674981562500 1.73872861250000 6.98412648125000 
 S -3.24003681562500 5.22764761250000 7.34267448125000 
