16

 C -3.15863418437500 1.66332221875000 5.58170062187500 
 C -3.16399618437500 5.01858521875000 5.54481962187500 
 C -4.46612418437500 1.56040121875000 5.05409862187500 
 C -4.40357718437500 4.67572721875000 4.85080162187500 
 N -2.23879718437500 1.74464521875000 4.64013462187500 
 N -2.17800018437500 5.32016921875000 4.72926562187500 
 N -4.55061118437500 1.36757721875000 3.75912862187500 
 N -4.29589318437500 4.53597621875000 3.53306762187500 
 N -4.72072218437500 1.60685221875000 7.59562662187500 
 N -4.79732518437500 4.54609821875000 7.39078462187500 
 S -5.67369818437500 1.50263321875000 6.25689762187500 
 S -5.70088418437500 4.41791621875000 6.03288362187500 
 S -2.91247218437500 1.61495821875000 3.16443462187500 
 S -2.70592318437500 5.08614121875000 3.16782962187500 
 S -3.05876218437500 1.61543721875000 7.27402962187500 
 S -3.18888818437500 4.82744321875000 7.25113762187500 
