16

 C -3.24820611875000 1.09907198124999 5.46923461562500 
 C -3.31587911875000 5.24100598124999 5.19830961562500 
 C -4.47592311875000 0.713359981249993 4.74422961562500 
 C -4.29626711875000 4.45247998124999 4.48979261562500 
 N -2.18868511875000 1.33683198124999 4.66305861562500 
 N -2.37893111875000 5.75110398124999 4.38515261562500 
 N -4.38665911875000 0.677141981249993 3.39630861562500 
 N -4.05699011875000 4.31933198124999 3.20354061562500 
 N -5.18060411875000 0.838579981249993 7.21083261562500 
 N -4.96060111875000 4.52633698124999 7.01072661562500 
 S -5.79619411875000 0.282420981249993 5.73270661562500 
 S -5.58203611875000 3.81716398124999 5.56605261562500 
 S -2.75903111875000 0.993571981249993 3.16100061562500 
 S -2.70504911875000 5.32340598124999 2.86079361562500 
 S -3.58381611875000 1.28444198124999 7.19060561562500 
 S -3.47358511875000 5.29636398124999 6.90094861562500 
