16

 C -3.25638309687500 1.04660079062500 5.54168300312500 
 C -3.26291409687500 5.12597679062500 5.71157100312500 
 C -4.49645509687500 0.743218790625000 4.79248000312500 
 C -4.39106209687500 4.50021579062500 5.09562200312500 
 N -2.22502609687500 1.20090479062500 4.71294400312500 
 N -2.25330909687500 5.34282879062500 4.89075000312500 
 N -4.42148309687500 0.768388790625000 3.45152000312500 
 N -4.26687409687500 4.32622579062500 3.78859700312500 
 N -5.04799309687500 0.559737790625001 7.25513700312500 
 N -4.89570709687500 4.49561779062500 7.61341900312500 
 S -5.84248909687500 0.441108790625000 5.81454500312500 
 S -5.70688709687500 4.19665179062500 6.15641100312500 
 S -2.83420209687500 1.05447079062500 3.18844500312500 
 S -2.77489309687500 4.91784479062500 3.38267300312500 
 S -3.37635609687500 0.897135790625001 7.28266300312500 
 S -3.38866609687500 5.27565379062500 7.47275900312500 
