16

 C -2.96233162812500 1.68106242187500 5.73388004062500 
 C -3.14600762812500 5.30012242187500 5.64340404062500 
 C -4.23675562812500 1.49005642187500 5.10132004062500 
 C -4.43578162812500 4.94585742187500 5.06395404062500 
 N -1.91548562812500 2.01804842187500 4.94560004062500 
 N -2.16312162812500 5.52506742187500 4.80481804062500 
 N -4.14731162812500 1.41787742187500 3.75066004062500 
 N -4.36086462812500 4.76286142187500 3.74989604062500 
 N -4.71893462812500 1.50311942187500 7.71095004062500 
 N -4.78400462812500 5.19160742187500 7.61431104062500 
 S -5.61439162812500 1.50756942187500 6.29440904062500 
 S -5.71329862812500 4.85243642187500 6.30266504062500 
 S -2.56999462812500 1.81409642187500 3.39927304062500 
 S -2.72370662812500 5.10003542187500 3.31415504062500 
 S -3.07756962812500 1.74978242187500 7.51120404062500 
 S -3.16494862812500 5.44606442187500 7.36788904062500 
