16

 C -2.88063162187500 1.69897673437500 5.24647117500000 
 C -3.35549562187500 5.08983673437500 5.57777717500000 
 C -4.04849362187500 1.05899173437500 4.74371417500000 
 C -4.49517762187500 4.51096973437500 4.90869217500000 
 N -1.89568962187500 1.94001973437500 4.40524717500000 
 N -2.27980462187500 5.26952173437500 4.80100317500000 
 N -4.01046462187500 0.843370734375001 3.43902417500000 
 N -4.38462762187500 4.52077273437500 3.59703017500000 
 N -4.30544362187500 1.05998773437500 7.32850117500000 
 N -5.04334462187500 4.50336673437500 7.42693517500000 
 S -5.22395062187500 0.588465734375001 6.03724717500000 
 S -5.69907062187500 4.02630173437500 5.98156917500000 
 S -2.49497262187500 1.34718973437500 2.95544917500000 
 S -2.85568662187500 5.06621773437500 3.22985817500000 
 S -2.83416862187500 1.70884973437500 6.97290517500000 
 S -3.44316162187500 4.91989873437500 7.35683917500000 
