16

 C -3.02776384687500 1.26495343437500 5.77060921875000 
 C -3.20175684687500 5.03072643437500 5.46701521875000 
 C -4.20528384687500 0.698233434375001 5.13185621875000 
 C -4.39327184687500 4.57380643437500 4.87190221875000 
 N -1.97275084687500 1.45266143437500 4.97612721875000 
 N -2.19827684687500 5.27915143437500 4.62158121875000 
 N -3.97607884687500 0.335757434375001 3.86561221875000 
 N -4.24609684687500 4.25880443437500 3.58237521875000 
 N -4.70722184687500 0.780140434375001 7.65915321875000 
 N -4.84964384687500 4.60816343437500 7.38006821875000 
 S -5.51005284687500 0.385213434375001 6.29278521875000 
 S -5.66504084687500 4.24471043437500 6.00065121875000 
 S -2.41480484687500 0.752724434375001 3.56189821875000 
 S -2.71583884687500 4.68166643437500 3.14219421875000 
 S -3.19265484687500 1.45154643437500 7.45588121875000 
 S -3.34951584687500 5.21260243437500 7.16781121875000 
