16

 C -3.19256682500000 1.10880854062500 5.50693102187500 
 C -3.24848582500000 4.67799854062500 5.57971202187500 
 C -4.30561182500000 0.682666540624999 4.73850502187500 
 C -4.54054482500000 4.38392654062500 5.04828102187500 
 N -2.10288682500000 1.46182454062500 4.83385902187500 
 N -2.22975182500000 4.75444954062500 4.72866302187500 
 N -4.13896082500000 0.821122540624998 3.42512302187500 
 N -4.50871182500000 4.46741354062500 3.71999302187500 
 N -5.03098682500000 0.262889540624998 7.16343102187500 
 N -4.97264482500000 4.65688054062500 7.57346902187500 
 S -5.67253982500000 7.029954062499888E-002 5.65542202187500 
 S -5.85034282500000 4.57067354062500 6.16879102187500 
 S -2.55172082500000 1.33863154062500 3.18643002187500 
 S -2.95290782500000 4.67272654062500 3.21610602187500 
 S -3.53987582500000 0.839736540624999 7.21921102187500 
 S -3.31471982500000 4.95162254062500 7.30480602187500 
