16

 C -3.30240967187500 1.37930239375000 5.55744329687500 
 C -2.93980867187500 5.24491539375000 5.44362029687500 
 C -4.43868067187500 0.675963393749996 5.00742329687500 
 C -4.18172367187500 4.92251239375000 4.79789129687500 
 N -2.31330667187500 1.65118639375000 4.72943529687500 
 N -1.89115567187500 5.37806139375000 4.64017729687500 
 N -4.31985067187500 0.431026393749995 3.72843129687500 
 N -4.12094267187500 4.84760839375000 3.50422029687500 
 N -5.09595767187500 1.24601539375000 7.38048929687500 
 N -4.68158767187500 5.11791639375000 7.35576929687500 
 S -5.67282767187500 0.338045393749995 6.16279229687500 
 S -5.47319067187500 4.69615139374999 5.97617129687500 
 S -2.82984767187500 1.02545839374999 3.22950929687500 
 S -2.56233467187500 5.07799239375000 3.05923929687500 
 S -3.56276967187500 1.85466839375000 7.18086829687500 
 S -3.10190767187500 5.39115339375000 7.16638029687500 
