16

 C -3.28453171875000 1.58355760312500 5.48999675625000 
 C -3.16096371875000 5.14200260312500 5.72045375625000 
 C -4.60173171875000 1.25560660312500 4.97325375625000 
 C -4.40126071875000 4.79038960312500 5.08653775625000 
 N -2.30401171875000 1.74106360312500 4.55557375625000 
 N -2.14743371875000 5.52480160312500 4.88022575625000 
 N -4.57348171875000 1.07378960312500 3.67042075625000 
 N -4.31374771875000 4.68929660312500 3.73247075625000 
 N -4.79977671875000 1.08106760312500 7.58553075625000 
 N -4.95794271875000 4.98837460312500 7.54742275625000 
 S -5.82525871875000 0.959967603125001 6.22905375625000 
 S -5.65821471875000 4.31642760312500 6.24478275625000 
 S -3.00204571875000 1.46389460312500 3.10149975625000 
 S -2.74339971875000 5.13539460312500 3.33509475625000 
 S -3.28509871875000 1.64382160312500 7.22037275625000 
 S -3.39572371875000 5.40287860312500 7.39924175625000 
