16

 C -3.31532927187500 1.30821811562500 5.56133509375000 
 C -3.36111027187500 4.93116911562500 5.25670409375000 
 C -4.46996427187500 0.709141115624999 4.92349709375000 
 C -4.56675927187500 4.42610511562500 4.61801409375000 
 N -2.33965527187500 1.56598211562500 4.68432609375000 
 N -2.34614227187500 5.17561911562500 4.42578209375000 
 N -4.36613027187500 0.606431115624999 3.58892709375000 
 N -4.52705027187500 4.45253211562500 3.29558309375000 
 N -5.02579027187500 0.921854115624999 7.39113209375000 
 N -5.15510227187500 4.57261511562500 7.11783509375000 
 S -5.79760627187500 0.393314115625000 6.04428409375000 
 S -5.99614527187500 4.38526311562500 5.69491409375000 
 S -2.81602427187500 1.10983511562500 3.16390609375000 
 S -2.98212727187500 4.94884611562500 2.90177409375000 
 S -3.49555127187500 1.54105811562500 7.30095809375000 
 S -3.54721127187500 5.02973611562500 6.96350809375000 
