16

 C -3.01544932500000 1.31511803437500 5.44419900000000 
 C -2.92735432500000 5.16809903437500 5.68376800000000 
 C -4.24331032500000 0.968466034374999 4.74671900000000 
 C -4.18148932500000 4.79343803437500 5.03934300000000 
 N -1.92430632500000 1.34170903437500 4.69235000000000 
 N -1.92853232500000 5.29278903437500 4.77884300000000 
 N -4.05177832500000 0.664401034375000 3.47323000000000 
 N -4.13599132500000 4.54742803437500 3.72356100000000 
 N -4.83803832500000 1.31625503437500 7.34157700000000 
 N -4.85568632500000 5.03398803437500 7.39266700000000 
 S -5.68723532500000 1.07287903437500 5.89386700000000 
 S -5.62233032500000 4.80273803437500 5.98136200000000 
 S -2.39931532500000 0.841522034374999 3.23624300000000 
 S -2.57017332500000 4.93830103437500 3.29305200000000 
 S -3.13316332500000 1.63912103437500 7.14964600000000 
 S -3.23070432500000 5.44474203437500 7.49461300000000 
