16

 C -3.16650492812500 1.49937985937500 5.63755111875000 
 C -3.06728192812500 5.20222885937500 5.51288511875000 
 C -4.41093692812500 1.23751785937500 4.84220411875000 
 C -4.34808992812500 4.93433685937500 4.83607711875000 
 N -2.14107392812500 1.93170985937500 4.89461611875000 
 N -2.08198292812500 5.39624485937500 4.68037611875000 
 N -4.21176292812500 1.35230585937500 3.53349611875000 
 N -4.21718492812500 4.70589785937500 3.52757311875000 
 N -5.05925392812500 0.971880859375003 7.30632711875000 
 N -4.81558792812500 5.31072485937500 7.41504811875000 
 S -5.81611792812500 0.791533859375003 5.83483811875000 
 S -5.57592992812500 4.71691085937500 5.99797311875000 
 S -2.60396592812500 1.74454585937500 3.32214411875000 
 S -2.63006292812500 5.03045985937500 3.15417811875000 
 S -3.39254192812500 1.15434185937500 7.29304611875000 
 S -3.10507192812500 5.43726885937500 7.24159211875000 
