16

 C -3.11035256562500 1.47829289062500 5.38504605937500 
 C -3.43949756562500 5.26108489062500 5.24954005937500 
 C -4.32344256562500 0.799000890625000 4.93179205937500 
 C -4.46397656562500 4.45503289062500 4.64185605937500 
 N -2.20185056562500 1.69949189062500 4.42458705937500 
 N -2.44788356562500 5.64421889062500 4.48002305937500 
 N -4.26433856562500 0.341333890625000 3.66914305937500 
 N -4.20785056562500 4.14668489062500 3.38076005937500 
 N -4.78114656562500 1.28721289062500 7.45282105937500 
 N -5.12417756562500 4.92069489062500 7.06202505937500 
 S -5.54440256562500 0.554865890625000 6.13470505937500 
 S -5.72790056562500 4.09323589062500 5.74463305937500 
 S -2.83471156562500 0.990154890625000 3.04282305937500 
 S -2.73154856562500 5.00557489062500 2.97398905937500 
 S -3.22290756562500 1.85213489062500 7.18602705937500 
 S -3.65911856562500 5.59204189062500 6.94297605937500 
