16

 C -2.66844551562500 1.61993423125000 5.34733759062500 
 C -3.39926651562500 5.09406223125000 5.61666159062500 
 C -3.74785551562500 0.886003231250000 4.82045759062500 
 C -4.46498751562500 4.45025423125000 4.89614959062500 
 N -1.85004551562500 2.04140323125000 4.42495859062500 
 N -2.36564451562500 5.38157223125000 4.83613159062500 
 N -3.78228751562500 0.751063231250000 3.52054559062500 
 N -4.40372651562500 4.52046823125000 3.58247859062500 
 N -4.18559051562500 1.04137823125000 7.30010359062500 
 N -5.01722551562500 4.39090723125000 7.40419359062500 
 S -4.99981551562500 0.563368231250000 5.92918659062500 
 S -5.79363351562500 4.03492323125000 5.95256559062500 
 S -2.45492251562500 1.54334923125000 2.94387659062500 
 S -2.88585851562500 5.08040523125000 3.27910359062500 
 S -2.82155451562500 1.96010723125000 7.08081359062500 
 S -3.55464151562500 5.08135923125000 7.29586359062500 
