16

 C -3.05249131562500 1.55160118750000 5.73077459375000 
 C -3.36622231562500 4.85151318750000 5.53348659375000 
 C -4.20974131562500 1.15279018750000 4.95096859375000 
 C -4.48622031562500 4.45036218750000 4.73942159375000 
 N -1.95725031562500 1.71403918750000 4.94847559375000 
 N -2.17465331562500 4.99593818750000 4.96157959375000 
 N -4.08685531562500 1.01262918750000 3.65220359375000 
 N -4.16580631562500 4.22645818750000 3.45464959375000 
 N -5.05187331562500 1.07519018750000 7.36039859375000 
 N -5.23808131562500 4.70756718750000 7.30244159375000 
 S -5.64477831562500 0.992675187499998 5.81786259375000 
 S -5.89852731562500 4.27630218750000 5.78000859375000 
 S -2.45057731562500 1.24790918750000 3.36631959375000 
 S -2.47630331562500 4.59137318750000 3.38037159375000 
 S -3.46566431562500 1.60625218750000 7.46052959375000 
 S -3.64354731562500 5.03470118750000 7.27888559375000 
