16

 C -3.31525542812500 0.932703362500001 5.43769292812500 
 C -3.13595242812500 4.80904636250000 5.59640592812500 
 C -4.54708642812500 0.764511362500000 4.77709292812500 
 C -4.43422742812500 4.53646736250000 4.97375092812500 
 N -2.29012742812500 1.10678736250000 4.62536892812500 
 N -2.15738342812500 5.02828636250000 4.75378192812500 
 N -4.47067542812500 0.819102362500001 3.44647392812500 
 N -4.42574042812500 4.47213136250000 3.64156792812500 
 N -4.92019842812500 0.534807362500000 7.31236392812500 
 N -4.97310642812500 4.68893236250000 7.49850092812500 
 S -5.77220142812500 0.284214362500000 5.92637892812500 
 S -5.75594442812500 4.53106836250000 6.05107592812500 
 S -2.88779442812500 1.01608536250000 3.07019392812500 
 S -2.91334542812500 4.77983636250000 3.22337392812500 
 S -3.30165942812500 0.821862362500000 7.14214292812500 
 S -3.33787742812500 4.69051036250000 7.36248492812500 
