16

 C -3.23403802812500 1.10591396562500 5.22946140312500 
 C -3.14055302812500 5.05337296562500 5.60847140312500 
 C -4.50780602812500 0.850590965625001 4.63967840312500 
 C -4.42938302812500 4.63837096562500 5.06884140312500 
 N -2.23396202812500 1.11283096562500 4.41066840312500 
 N -2.23079102812500 5.23615796562500 4.66413440312500 
 N -4.48552802812500 0.671038965625000 3.31869340312500 
 N -4.49160102812500 4.58392696562500 3.74915140312500 
 N -4.81103302812500 1.61128996562500 7.18553840312500 
 N -4.93456802812500 4.88954096562500 7.49484440312500 
 S -5.69530902812500 0.899281965625001 5.94302540312500 
 S -5.69916702812500 4.44665996562500 6.16333340312500 
 S -2.84955702812500 0.873974965625001 2.89836340312500 
 S -3.03203102812500 4.97591496562500 3.13704840312500 
 S -3.18564402812500 1.69342696562500 6.77556740312500 
 S -3.27466602812500 5.23881596562500 7.41324840312500 
