16

 C -3.26554243437500 1.17529109375000 5.88990719375000 
 C -2.93064143437500 4.59161009375000 5.35417219375000 
 C -4.35532843437500 0.653373093750000 5.17510419375000 
 C -4.24075343437500 4.53210809375000 4.77069419375000 
 N -2.22546643437500 1.52542009375000 5.18212519375000 
 N -2.00124643437500 4.85634009375000 4.44453819375000 
 N -4.29302143437500 0.708935093750001 3.86367719375000 
 N -4.28390143437500 4.46588709375000 3.44667319375000 
 N -4.93067643437500 0.447042093750000 7.69247819375000 
 N -4.61761243437500 4.54697809375000 7.31390019375000 
 S -5.70437843437500 0.273853093750001 6.24064819375000 
 S -5.53015443437500 4.48988809375000 5.90034219375000 
 S -2.72828143437500 1.27828209375000 3.61788219375000 
 S -2.72887943437500 4.70540409375000 2.93182719375000 
 S -3.47269043437500 1.27125409375000 7.64807019375000 
 S -3.03173143437500 4.81111609375000 7.04456919375000 
