16

 C -3.08947969062500 1.64089585312500 5.45352251875000 
 C -3.02259469062500 5.27920585312500 5.50533051875000 
 C -4.33687169062500 1.40421685312500 4.80165851875000 
 C -4.27055269062500 4.95061085312500 4.84797651875000 
 N -2.11044469062500 1.71310585312500 4.56807351875000 
 N -2.03041469062500 5.44403285312500 4.65316351875000 
 N -4.27791669062500 1.18957585312500 3.49337551875000 
 N -4.22395269062500 4.81605085312500 3.53006151875000 
 N -4.89994469062500 1.30621785312500 7.31884751875000 
 N -4.74071969062500 4.95026085312500 7.41081151875000 
 S -5.69023369062500 1.23226185312500 5.83784151875000 
 S -5.59873069062500 4.82847285312500 5.93547651875000 
 S -2.63935269062500 1.51767185312500 3.00480851875000 
 S -2.64169369062500 5.25439685312500 3.11694951875000 
 S -3.29093669062500 1.57212285312500 7.20885751875000 
 S -3.07095969062500 5.14142985312500 7.23297451875000 
