16

 C -2.87805901875000 1.74179769687500 5.70175580312500 
 C -3.31540301875000 5.44470369687500 5.33681680312500 
 C -4.18063501875000 1.59974469687500 5.03421780312500 
 C -4.51796701875000 4.91368869687500 4.73860080312500 
 N -1.84126601875000 1.91661669687500 4.86640180312500 
 N -2.34617001875000 5.70990969687500 4.46332480312500 
 N -4.16962801875000 1.56421469687500 3.69166380312500 
 N -4.47919701875000 4.84478069687500 3.37621480312500 
 N -4.66286101875000 1.64482069687500 7.56969080312500 
 N -4.91830401875000 5.08174869687500 7.31502680312500 
 S -5.51246301875000 1.41995069687500 6.16009280312500 
 S -5.65348901875000 4.45720669687500 5.95118880312500 
 S -2.55940101875000 1.77560069687500 3.37191880312500 
 S -2.89827801875000 5.30277569687500 3.01463080312500 
 S -2.99606701875000 1.86955269687500 7.43282980312500 
 S -3.42127601875000 5.67780769687500 7.01504080312500 
