16

 C -3.10724645000000 1.48949822187500 5.35030922187500 
 C -2.98951745000000 5.22345022187500 5.70647422187500 
 C -4.32891645000000 1.06705322187500 4.76040622187500 
 C -4.21985845000000 4.76080522187500 5.10436622187500 
 N -1.98056145000000 1.39552322187500 4.65607522187500 
 N -1.99213245000000 5.37015722187500 4.85813022187500 
 N -4.08648745000000 0.559149221874996 3.53767922187500 
 N -4.14630945000000 4.56332222187500 3.79220622187500 
 N -4.75017845000000 1.35894622187500 7.27922522187500 
 N -4.85494145000000 4.84077922187500 7.57516922187500 
 S -5.67955445000000 1.12543522187500 5.93895622187500 
 S -5.59405645000000 4.78639422187500 6.05966522187500 
 S -2.46900845000000 0.779420221874997 3.14911522187500 
 S -2.64979045000000 4.93158122187500 3.31583622187500 
 S -3.13194645000000 1.61921222187500 7.06704722187500 
 S -3.29338345000000 5.38027922187500 7.42328622187500 
