16

 C -3.49851304375000 1.62553467812500 5.38149995625000 
 C -3.28318504375000 4.90696667812500 5.78185695625000 
 C -4.63595004375000 1.08199867812500 4.60147295625000 
 C -4.54012604375000 4.69691567812500 5.11047995625000 
 N -2.54363904375000 2.05056267812500 4.58187695625000 
 N -2.24304504375000 5.09089167812500 4.91415295625000 
 N -4.44953404375000 1.00602367812500 3.31741495625000 
 N -4.43589704375000 4.45753367812500 3.80140295625000 
 N -5.24896904375000 0.934082678125000 7.05746495625000 
 N -5.08117604375000 4.97590867812500 7.64456895625000 
 S -6.03597904375000 0.690986678124999 5.59342295625000 
 S -5.84719004375000 4.66282367812500 6.15795595625000 
 S -2.85319704375000 1.56742067812500 3.07137495625000 
 S -2.87720904375000 4.77256267812500 3.40820695625000 
 S -3.77983604375000 1.72316767812500 7.04538895625000 
 S -3.41860204375000 5.16423867812500 7.50097195625000 
