16

 C -2.99539674687500 1.11696750000000 5.65556143750000 
 C -3.09339474687500 4.83123050000000 5.46478543750000 
 C -4.12947374687500 0.457200500000001 4.98811243750000 
 C -4.31584574687500 4.38173250000000 4.90020743750000 
 N -2.02687474687500 1.52612550000000 4.82181143750000 
 N -2.02109274687500 4.94651750000000 4.67366443750000 
 N -3.97703174687500 0.256845500000001 3.68009743750000 
 N -4.23146274687500 4.16226650000000 3.60741943750000 
 N -4.90963274687500 0.996995500000001 7.42154843750000 
 N -4.93562374687500 5.18616750000000 7.22115643750000 
 S -5.50716574687500 0.317176500000001 6.00775843750000 
 S -5.66941474687500 4.34709550000000 5.98275143750000 
 S -2.51469474687500 0.936593500000001 3.33854243750000 
 S -2.67012874687500 4.55605650000000 3.18391243750000 
 S -3.36574374687500 1.59333350000000 7.30453343750000 
 S -3.29574974687500 5.20737850000000 7.15173943750000 
