16

 C -3.26594125000000 1.36282573750000 5.32358432812500 
 C -3.17449125000000 5.40798773750000 5.67085932812500 
 C -4.40478725000000 0.640141737500000 4.79664732812500 
 C -4.39675225000000 4.80192573750000 5.05758532812500 
 N -2.16901725000000 1.32703073750000 4.61599832812500 
 N -2.16073125000000 5.50629673750000 4.81704032812500 
 N -4.21505225000000 8.441173749999997E-002 3.59220232812500 
 N -4.26906625000000 4.46450873750000 3.75491132812500 
 N -5.05406325000000 1.61834273750000 7.12419332812500 
 N -4.99213025000000 5.16655573750000 7.45854132812500 
 S -5.73489525000000 0.568183737500000 6.02203432812500 
 S -5.70260325000000 4.47146873750000 6.11678732812500 
 S -2.59139825000000 0.584559737499999 3.20065732812500 
 S -2.69174425000000 4.81790273750000 3.38292132812500 
 S -3.46472125000000 2.03209973750000 6.88069932812500 
 S -3.42454625000000 5.73708973750000 7.40367232812500 
