16

 C -3.21217070000000 0.925330978124999 5.42991971250000 
 C -3.15964470000000 4.55174397812500 5.54520871250000 
 C -4.44135170000000 0.486482978124999 4.76230571250000 
 C -4.44196170000000 4.69362097812500 4.97637771250000 
 N -2.23942470000000 1.33006397812500 4.59064471250000 
 N -2.19089070000000 4.37568997812500 4.69097971250000 
 N -4.38425470000000 0.561984978124999 3.41858871250000 
 N -4.46644070000000 4.77262097812500 3.64706071250000 
 N -4.80793470000000 0.499742978124999 7.36825271250000 
 N -4.84011470000000 4.75392797812500 7.47102271250000 
 S -5.68182970000000 0.209926978124999 5.96141071250000 
 S -5.71421770000000 4.70608697812500 6.09322871250000 
 S -2.85138970000000 1.21068897812500 3.08985271250000 
 S -2.86646770000000 4.50298797812500 3.16181671250000 
 S -3.22116770000000 0.928751978124999 7.13330071250000 
 S -3.22609670000000 4.84666797812500 7.23805571250000 
