16

 C -3.07628883750000 1.25419946875000 5.62490130000000 
 C -3.12889783750000 5.03140646875000 5.49215330000000 
 C -4.25855483750000 0.792639468750001 5.05749930000000 
 C -4.27105683750000 4.43067946875000 4.91300030000000 
 N -2.04593883750000 1.29216846875000 4.81599830000000 
 N -2.03450683750000 5.10881246875000 4.73923230000000 
 N -4.15069283750000 0.421670468750000 3.80679830000000 
 N -4.01075783750000 4.04178946875000 3.65378030000000 
 N -4.80453283750000 1.11761346875000 7.48383530000000 
 N -4.86617083750000 4.89322146875000 7.37924930000000 
 S -5.58779283750000 0.696200468750001 6.10613030000000 
 S -5.59475683750000 4.29151646875000 6.03556230000000 
 S -2.56371983750000 0.722745468750000 3.37859630000000 
 S -2.46118383750000 4.46979646875000 3.27833330000000 
 S -3.21533183750000 1.64235946875000 7.35569230000000 
 S -3.31132683750000 5.35482146875000 7.16388630000000 
