16

 C -2.79056231875000 1.74561172812500 5.48920664375000 
 C -3.14494631875000 5.14879972812500 5.67588064375000 
 C -4.08923631875000 1.40422572812500 4.96914464375000 
 C -4.39501131875000 4.72742472812500 5.05537964375000 
 N -1.91211831875000 2.00756872812500 4.54202164375000 
 N -2.21831731875000 5.38612972812500 4.76568964375000 
 N -4.12018831875000 1.18634172812500 3.65393364375000 
 N -4.33506731875000 4.49466072812500 3.74797664375000 
 N -4.52718431875000 1.61113472812500 7.55158764375000 
 N -4.92662631875000 5.03125272812500 7.54008564375000 
 S -5.37167131875000 1.49860372812500 6.15184764375000 
 S -5.72422631875000 4.66022172812500 6.14019864375000 
 S -2.57797731875000 1.52691672812500 3.07995264375000 
 S -2.79715731875000 4.91491472812500 3.30630264375000 
 S -2.92308331875000 1.96886572812500 7.24818364375000 
 S -3.30820731875000 5.28922672812500 7.48440464375000 
