16

 C -2.80484311562500 1.40058196562500 5.70424252500000 
 C -3.02830911562500 4.76264096562500 5.44086952500000 
 C -3.97870711562500 0.682860965625002 5.18957852500000 
 C -4.29404611562500 4.37624496562500 4.82043052500000 
 N -1.83116411562500 1.48329096562500 4.80963552500000 
 N -2.05234211562500 4.75651996562500 4.56973552500000 
 N -3.85772311562500 0.304334965625002 3.89827752500000 
 N -4.24303611562500 4.08075796562500 3.51838752500000 
 N -4.72086311562500 1.52930196562500 7.58279952500000 
 N -4.81759311562500 5.07982996562500 7.26095852500000 
 S -5.36327211562500 0.847279965625002 6.23228952500000 
 S -5.67089011562500 4.61500996562500 5.90718152500000 
 S -2.38249111562500 0.806961965625002 3.37039452500000 
 S -2.67160811562500 4.45177196562500 3.06795452500000 
 S -3.08467011562500 1.86452896562500 7.36483352500000 
 S -3.23555011562500 5.38023396562500 7.10347052500000 
