16

 C -3.34747963125000 1.38699073437500 5.27879632812500 
 C -3.19655263125000 5.04690973437500 5.38373332812500 
 C -4.55373063125000 0.851738734375000 4.65029032812500 
 C -4.41967663125000 5.02704673437500 4.64155432812500 
 N -2.30979263125000 1.46254073437500 4.44255832812500 
 N -2.11591163125000 5.22235173437500 4.66700832812500 
 N -4.48259963125000 0.682749734375001 3.32791732812500 
 N -4.24246663125000 5.23027273437500 3.36145332812500 
 N -4.96761763125000 1.20974673437500 7.23496332812500 
 N -4.97186363125000 4.74152973437500 7.23969232812500 
 S -5.81296163125000 0.584385734375001 5.85369432812500 
 S -5.75334663125000 4.97974473437500 5.78071632812500 
 S -2.95169563125000 1.13483673437500 2.90823732812500 
 S -2.59264363125000 5.42044573437500 3.08045932812500 
 S -3.36706263125000 1.58001373437500 7.00349232812500 
 S -3.31361663125000 5.08766373437500 7.13628832812500 
