16

 C -2.93652495000000 1.24106986562500 5.57251036875000 
 C -2.97641895000000 5.20336386562500 5.53001736875000 
 C -4.14131095000000 0.979342865625004 4.85113636875000 
 C -4.24258995000000 4.93910986562500 4.85842136875000 
 N -1.82850895000000 1.17346986562500 4.84035736875000 
 N -1.94202995000000 5.20994086562500 4.75053036875000 
 N -3.97839995000000 0.830090865625005 3.51717336875000 
 N -4.05999995000000 4.68485786562500 3.56694136875000 
 N -4.94681895000000 1.33210786562500 7.21693536875000 
 N -4.74282595000000 5.26599186562500 7.32804736875000 
 S -5.62439495000000 0.750475865625004 5.76993236875000 
 S -5.63092295000000 4.85913386562500 5.97175936875000 
 S -2.32279095000000 1.02951286562500 3.23385536875000 
 S -2.41718095000000 4.87388486562500 3.17734836875000 
 S -3.28567395000000 1.53828886562500 7.24237736875000 
 S -3.11349795000000 5.47763386562500 7.20790136875000 
