16

 C -2.85013282812500 1.69393543437500 5.51878025000000 
 C -3.20538382812500 5.07559643437500 5.69373125000000 
 C -4.11897282812500 1.32635843437500 4.95117425000000 
 C -4.41423182812500 4.72244643437500 5.01450825000000 
 N -1.98287282812500 1.98267443437500 4.52732125000000 
 N -2.23501682812500 5.37274443437500 4.82393725000000 
 N -4.11009782812500 1.20233043437500 3.61623325000000 
 N -4.31651482812500 4.47685843437500 3.71011125000000 
 N -4.49561882812500 1.71752143437500 7.48838625000000 
 N -4.94084682812500 4.98444243437500 7.51908725000000 
 S -5.37005582812500 1.45032743437500 6.13364425000000 
 S -5.70922682812500 4.63707643437500 6.14484925000000 
 S -2.57404682812500 1.50858343437500 3.06125925000000 
 S -2.78873082812500 4.94052143437500 3.28958425000000 
 S -2.91212182812500 1.97956243437500 7.22022625000000 
 S -3.31935382812500 5.27097443437500 7.45215525000000 
