16

 C -3.22168446562500 1.33006537187500 5.84661305937500 
 C -2.95016646562500 4.86219237187500 5.69848805937500 
 C -4.47913346562500 0.870267371875005 5.32855105937500 
 C -4.17425446562500 4.47119237187500 5.01227505937500 
 N -2.26364246562500 1.52879337187500 4.93460805937500 
 N -1.98023846562500 5.24200437187500 4.84606605937500 
 N -4.49942646562500 0.629942371875004 3.99327905937500 
 N -4.08490446562500 4.44345437187500 3.68862005937500 
 N -4.85684546562500 1.38264037187500 7.84179105937500 
 N -4.77528746562500 4.80050837187501 7.46004505937500 
 S -5.77472546562500 1.13932137187501 6.47995305937500 
 S -5.63615846562500 4.43652537187500 6.03767405937500 
 S -2.90226746562500 1.01650337187500 3.49475605937500 
 S -2.53863946562500 4.99561537187501 3.29684405937500 
 S -3.21698846562500 1.75349637187500 7.57331205937500 
 S -3.20633046562500 5.11677837187500 7.40264705937500 
