16

 C -3.17817090937500 0.980982328125003 5.50973891562500 
 C -3.22920090937500 4.68203132812500 5.63699391562500 
 C -4.35211690937500 0.706259328125002 4.76237091562500 
 C -4.52657790937500 4.49342532812500 5.04106291562500 
 N -2.15879990937500 1.37750832812500 4.77105391562500 
 N -2.22855790937500 4.88319132812500 4.79305791562500 
 N -4.23536190937500 0.781696328125002 3.44622091562500 
 N -4.50526990937500 4.35156832812500 3.70810891562500 
 N -5.12732790937500 0.463150328125002 7.13141291562500 
 N -4.91556090937500 4.84846432812500 7.56457191562500 
 S -5.70058990937500 0.135346328125002 5.57741191562500 
 S -5.77859090937500 4.40550532812500 6.18840391562500 
 S -2.70918990937500 1.34088532812500 3.21944091562500 
 S -2.92179290937500 4.71547632812500 3.30519691562500 
 S -3.45181390937500 0.795258328125002 7.21992991562500 
 S -3.28745790937500 4.98967832812500 7.41203391562500 
