16

 C -2.86515029687500 1.92992500000000 5.59606715000000 
 C -3.14649529687500 5.26964100000000 5.68411115000000 
 C -4.13301629687500 1.59896600000000 5.01622015000000 
 C -4.41859729687500 4.88106400000000 5.10823215000000 
 N -1.91562829687500 1.87491000000000 4.70265215000000 
 N -2.13367029687500 5.36365800000000 4.83523915000000 
 N -4.09747629687500 1.28584600000000 3.75253815000000 
 N -4.30535729687500 4.56888400000000 3.82303515000000 
 N -4.43462329687500 1.44594900000000 7.45533315000000 
 N -4.90986129687500 5.13223900000000 7.60966115000000 
 S -5.43019729687500 1.52317300000000 6.14546115000000 
 S -5.72108929687500 4.68987100000000 6.25131915000000 
 S -2.57533229687500 1.58621200000000 3.21792415000000 
 S -2.79391429687500 4.90181500000000 3.32625215000000 
 S -2.85371729687500 1.95190600000000 7.32754915000000 
 S -3.27518329687500 5.38878100000000 7.36965615000000 
