16

 C -3.25421196875000 1.52320424375000 5.46974655625000 
 C -3.22077696875000 5.07277424375000 5.60029755625000 
 C -4.47607896875000 1.09097224375000 4.83459055625000 
 C -4.35107296875000 4.44105824375000 4.99026055625000 
 N -2.24823796875000 1.56425024375000 4.59760055625000 
 N -2.16148596875000 5.22865924375000 4.86921455625000 
 N -4.42472396875000 0.945004243749999 3.50816755625000 
 N -4.22284896875000 4.23035324375000 3.69186755625000 
 N -4.90604796875000 1.43830224375000 7.38356555625000 
 N -4.88581296875000 4.69702424375000 7.55310755625000 
 S -5.79083996875000 0.919552243749999 5.99180355625000 
 S -5.60802196875000 4.26139524375000 6.12466755625000 
 S -2.81663496875000 1.38147224375000 3.11510255625000 
 S -2.65054996875000 4.71459224375000 3.39533755625000 
 S -3.26682596875000 1.72738024375000 7.20456855625000 
 S -3.34351496875000 5.34761224375000 7.30940355625000 
