16

 C -2.94513958437500 1.83811363125000 5.65520848750000 
 C -3.29807158437500 5.51796563125000 5.31023148750000 
 C -4.22163158437500 1.61598363125000 5.02499348750000 
 C -4.45282358437500 4.92520963125000 4.71680948750000 
 N -1.91740458437500 1.90080263125000 4.82203248750000 
 N -2.33688858437500 5.81588263125000 4.44717748750000 
 N -4.15725358437500 1.58666663125000 3.71185448750000 
 N -4.37100058437500 4.79743063125000 3.41936348750000 
 N -4.62183758437500 1.59862463125000 7.52659848750000 
 N -4.90481258437500 5.04223363125000 7.24106948750000 
 S -5.51053258437500 1.42060763125000 6.15060348750000 
 S -5.65796658437500 4.46694063125000 5.87427448750000 
 S -2.49907058437500 1.83377863125000 3.31340248750000 
 S -2.86003358437500 5.25742663125000 2.95331648750000 
 S -3.00436658437500 1.96971363125000 7.40472348750000 
 S -3.36037158437500 5.61449863125000 7.04816048750000 
