16

 C -2.94933145625000 1.47891249687501 5.63987759687500 
 C -3.02259945625000 5.29641949687501 5.36205759687500 
 C -4.23152845625000 1.00703949687500 5.09953859687500 
 C -4.22820345625000 4.85261049687501 4.76019659687500 
 N -2.09308545625000 1.68982349687501 4.65430359687500 
 N -1.93330145625000 5.54552049687501 4.57111059687500 
 N -4.35024945625000 0.840879496875005 3.79068059687500 
 N -4.12370945625000 4.74615149687501 3.41043059687500 
 N -4.69237445625000 1.24843149687501 7.61508059687500 
 N -4.54169545625000 4.83847349687501 7.41672359687500 
 S -5.53659845625000 0.871857496875006 6.25837959687500 
 S -5.45042545625000 4.63219449687501 5.99695159687500 
 S -2.84638145625000 1.18126749687501 3.21605359687500 
 S -2.53322645625000 5.22488349687501 3.10964659687500 
 S -3.06606645625000 1.62645449687500 7.44681059687500 
 S -3.02580645625000 5.43903549687501 7.06043459687500 
