16

 C -2.85827738750000 1.54221911250000 5.45894372187500 
 C -3.46796738750000 5.15072211250000 5.18834272187500 
 C -4.03880738750000 1.01965811250000 4.80240272187500 
 C -4.56062038750000 4.30319711250000 4.65713772187500 
 N -1.80995338750000 1.62808911250000 4.66856572187500 
 N -2.35677138750000 5.14619511250000 4.48255972187500 
 N -3.91652538750000 0.898280112499996 3.47118472187500 
 N -4.35379838750000 3.98443011250000 3.38432872187500 
 N -4.79203638750000 1.43025511250000 7.16088272187500 
 N -5.32887338750000 5.13874011250000 6.95755572187500 
 S -5.40125638750000 0.799000112499995 5.75162472187500 
 S -5.93370638750000 4.10182011250000 5.77955872187500 
 S -2.35025538750000 1.12899911250000 3.11981172187500 
 S -2.75956738750000 4.39408811250000 3.01397772187500 
 S -3.20427938750000 1.98338511250000 7.05837072187500 
 S -3.84705738750000 5.77927511250000 6.71441972187500 
