16

 C -3.79348545625000 1.17585987812500 5.67822291875000 
 C -3.13793745625000 4.97601187812500 5.33606691875000 
 C -4.85022945625000 0.628570878125001 4.89988091875000 
 C -4.37024645625000 4.48552487812500 4.78780091875000 
 N -2.72128945625000 1.41880587812500 4.97494491875000 
 N -2.14173245625000 5.04727787812500 4.47407391875000 
 N -4.64229145625000 0.514054878125001 3.58978691875000 
 N -4.30958845625000 4.17508087812500 3.47487791875000 
 N -5.62307945625000 0.670563878125002 7.38729091875000 
 N -4.74040545625000 5.04356887812500 7.31397691875000 
 S -6.23201845625000 0.200096878125001 5.92226291875000 
 S -5.54489945625000 4.24969587812500 6.06112191875000 
 S -3.11215645625000 1.19747887812500 3.40142491875000 
 S -2.69174745625000 4.56873787812500 3.04099191875000 
 S -4.03547645625000 1.24567787812500 7.37318091875000 
 S -3.16667145625000 5.48845387812500 6.94322791875000 
