16

 C -3.36640758437500 1.41794594062500 5.20264851562500 
 C -3.10547558437500 5.21013394062500 5.38023651562500 
 C -4.52780958437500 0.900171940624998 4.51924651562500 
 C -4.18900058437500 4.48342794062500 4.82331751562500 
 N -2.27981758437500 1.36641594062500 4.46348651562500 
 N -2.02584058437500 5.19533994062500 4.61852151562500 
 N -4.29587458437500 0.606127940624998 3.24420351562500 
 N -3.99726258437500 4.03174594062500 3.58888751562500 
 N -5.10227258437500 1.18020194062500 7.00807751562500 
 N -4.84288058437500 5.01329094062500 7.26257551562500 
 S -5.88825158437500 0.740278940624998 5.57674551562500 
 S -5.59937258437500 4.45468794062500 5.84680551562500 
 S -2.66371758437500 0.890411940624998 2.94502451562500 
 S -2.42197258437500 4.36126294062500 3.24294351562500 
 S -3.55221558437500 1.72782994062500 6.86544451562500 
 S -3.26559358437500 5.51339694062500 7.06796951562500 
