16

 C -3.17921876562500 1.28335312500000 5.84345315312500 
 C -3.04910176562500 4.79096912500000 5.39309615312500 
 C -4.32997576562500 0.815402124999998 5.22729715312500 
 C -4.37024776562500 4.50005512500000 4.82664015312500 
 N -2.18612376562500 1.61008012500000 4.99870915312500 
 N -2.05868276562500 4.74945712500000 4.47781015312500 
 N -4.26196276562500 0.732420124999998 3.90833415312500 
 N -4.39616676562500 4.52439212500000 3.47596515312500 
 N -4.92979576562500 0.635964124999998 7.66861215312500 
 N -4.59842576562500 4.62931112500000 7.39943215312500 
 S -5.58705076562500 0.114677124999998 6.22640715312500 
 S -5.60853476562500 4.35473812500000 6.09847115312500 
 S -2.73869176562500 1.28710512500000 3.44827915312500 
 S -2.81310876562500 4.68229212500000 3.00258915312500 
 S -3.30480176562500 1.10942212500000 7.59002115312500 
 S -2.95278276562500 4.77849212500000 7.13008715312500 
