16

 C -3.29643692187500 1.24431636250000 5.54121378125000 
 C -3.38090992187500 4.67459736250000 5.33131878125000 
 C -4.48218592187500 0.703570362499999 4.86707078125000 
 C -4.63667192187500 4.50248236250000 4.63787178125000 
 N -2.22706492187500 1.55664736250000 4.79798778125000 
 N -2.42446992187500 5.03813236250000 4.49610278125000 
 N -4.26964592187500 0.568750362499999 3.54796178125000 
 N -4.55815392187500 4.49346536250000 3.31227078125000 
 N -5.07577292187500 0.971082362499999 7.36740678125000 
 N -5.14953092187500 4.66768636250000 7.16751778125000 
 S -5.70084992187500 0.188852362499999 5.95310978125000 
 S -5.98600892187500 4.48757336250000 5.76188478125000 
 S -2.77887092187500 1.19052136250000 3.29840278125000 
 S -3.00149292187500 4.97197936250000 2.95448878125000 
 S -3.45772792187500 1.38920036250000 7.19016178125000 
 S -3.50886792187500 4.93485136250000 7.00445478125000 
