16

 C -3.30882261250000 1.51268611562500 5.35771205937500 
 C -3.34709361250000 5.36647211562500 5.44556405937500 
 C -4.46496161250000 0.764752115624999 4.87227705937500 
 C -4.51259961250000 4.78750611562500 4.80488105937500 
 N -2.32037261250000 1.67073811562500 4.49310605937500 
 N -2.33318461250000 5.58819611562500 4.58724605937500 
 N -4.33870161250000 0.515939115624999 3.57979205937500 
 N -4.44070061250000 4.73614711562500 3.46302305937500 
 N -4.82023261250000 1.15228111562500 7.46995705937500 
 N -5.05920461250000 4.68840211562500 7.26750405937500 
 S -5.62790361250000 0.489592115624999 6.15660605937500 
 S -5.69446661250000 4.16344111562500 5.81719805937500 
 S -2.90577261250000 1.07266911562500 3.01353605937500 
 S -2.97651161250000 5.24346411562500 3.08256405937500 
 S -3.38598561250000 1.95829211562500 7.07971805937500 
 S -3.57232861250000 5.51353911562500 7.19730005937500 
