16

 C -3.01021977500001 1.27689581875000 5.46464555937500 
 C -2.93290577500001 5.15520381875000 5.67269055937500 
 C -4.23018977500001 0.939867818749998 4.79340455937500 
 C -4.20581577500001 4.80127481875000 5.02571955937500 
 N -1.90740877500001 1.33249481875000 4.71871955937500 
 N -1.96127477500001 5.27159581875000 4.78534655937500 
 N -4.06367577500001 0.703568818749997 3.47691055937500 
 N -4.12139677500001 4.55628781875000 3.71207055937500 
 N -4.83463677500001 1.31001281875000 7.32465655937500 
 N -4.86363077500001 5.08260681875000 7.39518855937500 
 S -5.65610177500001 1.05622881875000 5.86862655937500 
 S -5.61535877500001 4.80476481875000 5.97161655937500 
 S -2.39116677500001 0.850387818749998 3.22741655937500 
 S -2.53192477500001 4.93953081875000 3.28045455937500 
 S -3.16120977500001 1.64210381875000 7.17846755937500 
 S -3.21215977500001 5.45208181875000 7.46962855937500 
