16

 C -3.18610707500000 1.57418715937500 5.83759062187500 
 C -3.07993807500000 5.12421815937500 5.78150162187500 
 C -4.41411907500000 1.10067015937500 5.26570762187500 
 C -4.28370507500000 4.64637715937500 5.11559562187500 
 N -2.14125907500000 1.58837715937500 5.02275662187500 
 N -2.02019507500000 5.36318415937500 4.96131662187500 
 N -4.34200807500000 0.788047159374997 3.98388262187500 
 N -4.14224007500000 4.48365215937500 3.80231662187500 
 N -5.03095007500000 1.31256715937500 7.75649162187500 
 N -4.81914907500000 4.98454115937500 7.54884762187500 
 S -5.77694307500000 0.904251159374997 6.32024962187500 
 S -5.58541707500000 4.32034715937500 6.20879662187500 
 S -2.82486207500000 1.23009115937500 3.52466862187500 
 S -2.55580607500000 4.95547115937500 3.43600262187500 
 S -3.39430607500000 1.79814115937500 7.56478162187500 
 S -3.29215807500000 5.34185915937500 7.52310362187500 
