16

 C -3.05232182187500 1.52920649062499 5.74173696562500 
 C -3.27254182187500 4.87603249062499 5.61492796562500 
 C -4.18507782187500 1.18059449062499 4.93245296562500 
 C -4.38359082187500 4.47026549062499 4.76548096562500 
 N -2.01272782187500 1.75349049062499 4.97671096562500 
 N -2.12184282187500 4.97793549062499 4.92289796562500 
 N -3.98813182187500 1.02853549062499 3.60516296562500 
 N -4.07958882187500 4.16743249062499 3.49189396562500 
 N -4.97421182187500 1.07282149062499 7.29653796562500 
 N -5.31784782187500 4.63217549062499 7.27264196562500 
 S -5.64110882187500 1.03943049062499 5.86745896562500 
 S -5.87851282187500 4.34076449062499 5.76104996562500 
 S -2.40940182187500 1.25801549062499 3.44006596562500 
 S -2.46211382187500 4.49563849062499 3.35750296562500 
 S -3.44159682187500 1.61175749062499 7.45790796562500 
 S -3.65079082187500 5.02003349062499 7.27568696562500 
