16

 C -3.08183171250000 1.56414422187500 5.51058869062500 
 C -2.88188571250000 4.86473722187500 5.39879469062500 
 C -4.32858471250000 1.12811922187500 4.91651669062500 
 C -4.19221671250000 4.74018922187500 4.76178469062500 
 N -2.07638071250000 1.59354722187500 4.61700569062500 
 N -1.90242271250000 4.85809822187500 4.53366269062500 
 N -4.24944871250000 0.797353221874999 3.65248069062500 
 N -4.18863571250000 4.41244322187500 3.49096069062500 
 N -4.87161071250000 1.39510222187500 7.40114169062500 
 N -4.69367371250000 5.17563422187500 7.28248469062500 
 S -5.64338671250000 0.831649221874999 5.99935169062500 
 S -5.56282471250000 4.94027922187500 5.89978969062500 
 S -2.69048971250000 1.17141222187500 3.15573069062500 
 S -2.61723471250000 4.45525122187500 3.02405569062500 
 S -3.25383171250000 1.83618322187500 7.20567869062500 
 S -3.07568271250000 5.29470722187500 7.05638969062500 
