16

 C -2.86123587812500 1.41749713750000 5.79202171875000 
 C -3.15312487812500 4.81127213750000 5.65875371875000 
 C -4.17841487812500 1.17283613750000 5.11737671875000 
 C -4.44820587812500 4.69722913750000 5.00181471875000 
 N -1.83687987812500 1.43910113750000 4.91796571875000 
 N -2.15293987812500 4.77831413750000 4.77548171875000 
 N -4.11223487812500 1.14351813750000 3.76932371875000 
 N -4.38161687812500 4.70652913750000 3.67440871875000 
 N -4.64887587812500 1.48011313750000 7.68918271875000 
 N -5.04385787812500 4.70044713750000 7.47139471875000 
 S -5.54362387812500 1.24695013750000 6.25371071875000 
 S -5.83604087812500 4.48852013750000 6.04448471875000 
 S -2.46894187812500 1.29623113750000 3.44174371875000 
 S -2.77371887812500 4.79560313750000 3.24270371875000 
 S -2.98487087812500 1.60311313750000 7.51324171875000 
 S -3.41262487812500 5.02831913750000 7.40336371875000 
