16

 C -3.23976802187500 1.48925254687500 5.45451154375000 
 C -3.24748302187500 5.07328654687500 5.64052554375000 
 C -4.47589002187500 1.05741454687500 4.89717654375000 
 C -4.35287302187500 4.36709754687500 5.01218154375000 
 N -2.22762802187500 1.54223854687500 4.64042854375000 
 N -2.18645302187500 5.23010554687500 4.86819254375000 
 N -4.41273202187500 0.880429546875001 3.57695754375000 
 N -4.24470002187500 4.22461854687500 3.68275554375000 
 N -4.89560402187500 1.45250554687500 7.42013954375000 
 N -4.88156802187500 4.70886854687500 7.52818854375000 
 S -5.80116702187500 0.913444546875001 6.00399154375000 
 S -5.58926702187500 4.25486654687500 6.14993654375000 
 S -2.83982502187500 1.31204354687500 3.12265754375000 
 S -2.65899002187500 4.71455654687500 3.38544354375000 
 S -3.26270002187500 1.72684854687500 7.18165154375000 
 S -3.35756502187500 5.33644254687500 7.34572254375000 
