16

 C -3.33600413437500 1.21812508750000 5.42130316250000 
 C -3.18721313437500 5.16565308750000 5.06663816250000 
 C -4.41951413437500 0.566389087500003 4.71629716250000 
 C -4.22791313437500 4.43307008750000 4.39585716250000 
 N -2.32786813437500 1.59109708750000 4.63597216250000 
 N -2.29528813437500 5.64376408750000 4.22799716250000 
 N -4.24910313437500 0.358549087500003 3.41025216250000 
 N -4.13110413437500 4.34878508750000 3.09513516250000 
 N -5.12961713437500 0.850417087500002 7.24715916250000 
 N -4.78411913437500 4.23837708750000 6.87596516250000 
 S -5.77426513437500 0.189143087500002 5.84995716250000 
 S -5.47493513437500 3.88510308750000 5.40158516250000 
 S -2.76883713437500 1.18095808750000 3.11823116250000 
 S -2.68894613437500 5.13791808750000 2.68955516250000 
 S -3.61003613437500 1.46687908750000 7.13761416250000 
 S -3.47153213437500 5.22052908750000 6.81232216250000 
