16

 C -2.94769496250000 1.48910317187500 5.36081280937500 
 C -3.32537796250000 5.23500117187500 5.94080180937500 
 C -4.16164096250000 1.00596817187500 4.72232480937500 
 C -4.44349296250000 4.87794717187500 5.20216780937500 
 N -1.93050396250000 1.55750617187500 4.50072280937500 
 N -2.19842896250000 5.45374017187500 5.24280080937500 
 N -4.03621196250000 0.827913171874998 3.43923180937500 
 N -4.19696596250000 4.75497217187500 3.88581980937500 
 N -4.84454396250000 1.26325017187500 7.15810280937500 
 N -5.02870396250000 5.05584417187500 7.70529780937500 
 S -5.49525996250000 0.679011171874998 5.71950780937500 
 S -5.79159096250000 4.80463217187500 6.30485180937500 
 S -2.56171496250000 1.21096717187500 2.97626380937500 
 S -2.55937996250000 5.13404317187500 3.68967080937500 
 S -3.26317396250000 1.76457017187500 7.11600780937500 
 S -3.47131596250000 5.52588317187500 7.59298980937500 
