16

 C -3.04713876250000 1.27843651562500 5.27346344062500 
 C -2.90797576250000 5.08990751562500 5.60073044062500 
 C -4.15296276250000 0.726968515625001 4.60867644062500 
 C -4.15568776250000 4.55647751562500 5.14354344062500 
 N -2.09332576250000 1.68995551562500 4.45730544062500 
 N -2.02382476250000 5.31268851562500 4.60485944062500 
 N -4.13118876250000 0.788847515625001 3.29196044062500 
 N -4.18753176250000 4.32305051562500 3.82559644062500 
 N -4.68646376250000 0.632941515625000 7.12963744062500 
 N -4.48557376250000 5.07212751562500 7.65505544062500 
 S -5.44530976250000 0.220876515625001 5.68105544062500 
 S -5.39043376250000 4.51310951562500 6.34521344062500 
 S -2.65479676250000 1.52292451562500 2.93904244062500 
 S -2.71449876250000 4.81692651562500 3.19993044062500 
 S -3.12489276250000 1.23521451562500 7.01610744062500 
 S -2.84773776250000 5.37608851562500 7.34621244062500 
