16

 C -3.21182940000000 1.11360535625000 5.57557083437500 
 C -3.30016440000000 5.20259335625000 5.67287683437500 
 C -4.46541340000000 0.819404356250002 4.89954783437500 
 C -4.34386140000000 4.45367735625000 4.99253783437500 
 N -2.09441240000000 1.09661135625000 4.83145883437500 
 N -2.32874340000000 5.57441835625000 4.85198183437500 
 N -4.30247340000000 0.703872356250002 3.58050183437500 
 N -4.21600840000000 4.36152735625000 3.66054383437500 
 N -4.97746640000000 0.609652356250002 7.45854283437500 
 N -4.95887040000000 4.53881035625000 7.57453983437500 
 S -5.81649940000000 0.588579356250001 6.05848683437500 
 S -5.61337340000000 4.04488735625000 6.08016083437500 
 S -2.68611040000000 0.936808356250001 3.28692183437500 
 S -2.74262840000000 5.07472435625000 3.33322483437500 
 S -3.38615140000000 1.06876235625000 7.31298083437500 
 S -3.49126440000000 5.32001235625000 7.39303583437500 
