16

 C -3.17497265625000 1.42475899687500 5.53383944687500 
 C -3.16349865625000 4.94408599687500 5.20346044687500 
 C -4.47614665625000 1.05296699687500 4.96845444687500 
 C -4.24397265625000 4.16439799687500 4.69415944687500 
 N -2.18466065625000 1.50270099687500 4.65533444687500 
 N -2.23042965625000 5.19366899687500 4.30266444687500 
 N -4.46208965625000 0.741068996875000 3.68446044687500 
 N -4.14035965625000 3.87158699687500 3.40045544687500 
 N -4.98163165625000 1.42773799687500 7.45904644687500 
 N -4.99073165625000 4.90237999687500 7.08324844687500 
 S -5.77748865625000 0.885645996875000 6.10449844687500 
 S -5.63527865625000 4.08824999687500 5.72297144687500 
 S -2.92664265625000 1.07955399687500 3.18911744687500 
 S -2.76446865625000 4.57927399687500 2.82002044687500 
 S -3.34366765625000 1.79543699687500 7.24082444687500 
 S -3.51465065625000 5.59298399687500 6.77965744687500 
