16

 C -3.33703251250000 1.09769024062500 5.47259006250000 
 C -3.33367451250000 5.19134024062500 5.24593606250000 
 C -4.49309151250000 0.772349240624997 4.74415206250000 
 C -4.34634851250000 4.43623924062500 4.54370506250000 
 N -2.27102651250000 1.19968424062500 4.71786506250000 
 N -2.35516651250000 5.72841624062500 4.52560006250000 
 N -4.31885851250000 0.705392240624997 3.43773706250000 
 N -4.10733051250000 4.43692124062500 3.21314406250000 
 N -5.16905251250000 0.814342240624997 7.18210806250000 
 N -5.04658251250000 4.61529824062500 7.02371606250000 
 S -5.81825251250000 0.359056240624997 5.74835906250000 
 S -5.56680351250000 3.84396624062500 5.67536806250000 
 S -2.73441351250000 0.946258240624997 3.12625306250000 
 S -2.72654151250000 5.30598024062500 2.91780406250000 
 S -3.56036951250000 1.18029424062500 7.19636806250000 
 S -3.52547851250000 5.32917924062500 6.95432906250000 
