16

 C -3.41515412187500 1.32320354687500 5.44232795000000 
 C -3.19795212187500 5.05615254687500 5.00226595000000 
 C -4.37879912187500 0.509549546875000 4.82199095000000 
 C -4.32383512187500 4.46872354687500 4.27215495000000 
 N -2.51583212187500 1.79863254687500 4.61255995000000 
 N -2.14684612187500 5.35705354687500 4.25143895000000 
 N -4.19136012187500 0.363190546875001 3.53521395000000 
 N -4.13757012187500 4.43365154687500 2.98019895000000 
 N -5.12234012187500 0.803070546875000 7.20652995000000 
 N -4.80406112187500 4.29330154687500 6.85402595000000 
 S -5.73512212187500 0.187831546875000 5.82069895000000 
 S -5.57118012187500 3.82415154687500 5.44255295000000 
 S -2.83445212187500 1.14766654687500 3.10016295000000 
 S -2.64521412187500 5.06007954687500 2.64434095000000 
 S -3.59323412187500 1.47194554687500 7.12901895000000 
 S -3.38511312187500 5.24234854687500 6.70094995000000 
