16

 C -2.99693122500000 1.50230158750000 5.41278034687500 
 C -3.11511322500000 5.12595258749999 5.58700934687500 
 C -4.15197722500000 0.847994587499994 4.83408134687500 
 C -4.17466722500000 4.45432958749999 4.88627934687500 
 N -1.94420222500000 1.72648458750000 4.57450534687500 
 N -1.98167622500000 5.36960258749999 4.91133234687500 
 N -4.06705422500000 0.628379587499995 3.53406534687500 
 N -3.90983622500000 4.16354258749999 3.61416534687500 
 N -4.74858522500000 0.965451587499994 7.32756934687500 
 N -5.08909922500000 4.95640858749999 7.28374434687500 
 S -5.37278022500000 0.388937587499995 5.88389934687500 
 S -5.68153022500000 4.42411158749999 5.86412934687500 
 S -2.56927222500000 1.32107258750000 3.03778534687500 
 S -2.30572122500000 4.75975158749999 3.38184534687500 
 S -3.19865622500000 1.67992458749999 7.15119034687500 
 S -3.46302222500000 5.50199358750000 7.22947534687500 
