16

 C -3.14301917500000 1.15684776562500 5.57136510312500 
 C -2.98761817500000 5.06277976562500 5.61396410312500 
 C -4.30261617500000 0.704106765625001 4.87697910312500 
 C -4.16241717500000 4.57418776562500 4.90973610312500 
 N -2.02675817500000 1.20317076562500 4.84381810312500 
 N -1.95189017500000 5.28866476562500 4.83661610312500 
 N -4.06929217500000 0.407213765625001 3.58670210312500 
 N -3.93815017500000 4.32726676562500 3.60024110312500 
 N -4.98580217500000 1.02200976562500 7.33200510312500 
 N -4.67568417500000 4.74069476562500 7.49776910312500 
 S -5.69974117500000 0.525769765625001 5.91819410312500 
 S -5.45836917500000 4.30876776562500 6.09002010312500 
 S -2.42269717500000 0.853703765625001 3.29452110312500 
 S -2.41232117500000 4.91741876562500 3.28331210312500 
 S -3.33095317500000 1.27326576562500 7.24574710312500 
 S -3.15216017500000 5.35743476562500 7.32394610312500 
