16

 C -2.82053451875000 1.27500611250000 5.77259726250000 
 C -2.98828051875000 4.65694311250000 5.55354126250000 
 C -4.10714451875000 1.16663811250000 5.07409126250000 
 C -4.18976251875000 4.40145411250000 4.76202426250000 
 N -1.81295451875000 1.11407611250000 4.91286326250000 
 N -1.86327951875000 4.66078511250000 4.81863726250000 
 N -4.02792751875000 0.982321112500003 3.78406426250000 
 N -3.93716951875000 4.23556911250000 3.47047426250000 
 N -4.70700451875000 1.52277911250000 7.50001126250000 
 N -4.97434151875000 4.85136811250000 7.21080826250000 
 S -5.55440251875000 1.32634711250000 6.09147126250000 
 S -5.68443051875000 4.35050211250000 5.76800626250000 
 S -2.46290251875000 1.02158911250000 3.40571326250000 
 S -2.32565251875000 4.39590811250000 3.23218326250000 
 S -3.08581051875000 1.59911511250000 7.46138426250000 
 S -3.31465351875000 5.11428911250000 7.15590226250000 
