16

 C -3.09627886250000 1.56152952500000 5.40054691875000 
 C -3.26842886250000 5.13434352500000 5.56308091875000 
 C -4.31140686250000 1.02969552500000 4.87218991875000 
 C -4.45429986250000 4.62402252500000 4.88623891875000 
 N -2.04284486250000 1.64255152500000 4.56777291875000 
 N -2.22339186250000 5.34395352500000 4.76089491875000 
 N -4.22867386250000 0.710500525000003 3.59774491875000 
 N -4.32712786250000 4.66417052500000 3.56893191875000 
 N -4.65734886250000 1.13455052500000 7.41422891875000 
 N -5.00505586250000 4.86072852500000 7.46509091875000 
 S -5.60271886250000 1.01827552500000 6.04465291875000 
 S -5.78014186250000 4.34331252500000 6.02526091875000 
 S -2.69191386250000 1.11837652500000 3.14126191875000 
 S -2.71586686250000 5.08288252500000 3.27504091875000 
 S -3.13994486250000 1.71930252500000 7.10177591875000 
 S -3.30696686250000 5.05726152500000 7.29453791875000 
