16

 C -3.20006481875000 1.21334515937500 5.37282691875000 
 C -2.88348881875000 5.29770815937500 5.40217491875000 
 C -4.48875881875000 0.891439159375000 4.78190191875000 
 C -4.03029681875000 4.81774115937500 4.68816391875000 
 N -2.23612881875000 1.14046915937500 4.49754691875000 
 N -1.82168281875000 5.39423415937500 4.62085691875000 
 N -4.43863781875000 0.500194159374999 3.53132591875000 
 N -3.89233881875000 4.69609015937500 3.35968891875000 
 N -4.79426581875000 1.10588715937500 7.32292791875000 
 N -4.63940581875000 4.80124115937500 7.18736091875000 
 S -5.72642481875000 0.881450159374999 5.93310291875000 
 S -5.39124481875000 4.56687815937500 5.74836791875000 
 S -2.84738981875000 0.663179159375000 3.06377391875000 
 S -2.29559881875000 4.97620915937500 3.07551391875000 
 S -3.21702381875000 1.62388815937500 7.05401991875000 
 S -3.12709881875000 5.42077415937500 7.10804791875000 
