16

 C -3.29163121562500 1.42428345625000 5.67993257812500 
 C -3.54950421562500 5.32835845625000 5.50558857812500 
 C -4.42689721562500 0.853487456249999 5.02202657812500 
 C -4.62371721562500 4.56632845625000 4.87550357812500 
 N -2.35339821562500 1.81227645625000 4.80622657812500 
 N -2.51630421562500 5.59431245625000 4.74332557812500 
 N -4.36225321562500 0.795602456249999 3.69966157812500 
 N -4.46291921562500 4.47859545625000 3.57459957812500 
 N -4.85995621562500 0.960864456249999 7.57859957812500 
 N -5.36273021562500 4.92965445625000 7.29622257812500 
 S -5.72115721562500 0.515605456249999 6.14881757812500 
 S -5.91752921562500 4.13379045625000 5.93737057812500 
 S -2.82756921562500 1.28390445625000 3.28808157812500 
 S -2.97195721562500 5.05976545625000 3.23597457812500 
 S -3.31351021562500 1.55991145625000 7.39398557812500 
 S -3.80466121562500 5.55755045625000 7.15343757812500 
