16

 C -3.17022130937500 1.34960132187500 5.59710402812500 
 C -3.28807430937500 4.86564032187500 5.59115402812500 
 C -4.39589830937500 1.05298532187500 4.89814402812500 
 C -4.51853030937500 4.46894832187500 4.86474302812500 
 N -2.03900330937500 1.45300832187500 4.87824702812500 
 N -2.17364630937500 5.10436632187500 4.84647402812500 
 N -4.14576430937500 0.909332321875001 3.56013002812500 
 N -4.31096930937500 4.43275832187500 3.55961702812500 
 N -4.99261030937500 1.26024932187500 7.34332202812500 
 N -5.30253830937500 4.86600532187500 7.22602602812500 
 S -5.78317130937500 0.867979321875002 6.00099402812500 
 S -5.88328930937500 4.08956832187500 5.82667002812500 
 S -2.53658430937500 1.28067632187500 3.31067602812500 
 S -2.76203330937500 4.82813832187500 3.27300002812500 
 S -3.41356530937500 1.58220932187500 7.30733802812500 
 S -3.63389430937500 5.06654932187500 7.28076302812500 
