16

 C -3.24115576562500 1.38983937812500 5.52556234062500 
 C -3.15054376562500 5.06383337812500 5.67148834062500 
 C -4.45098576562500 0.844071378124997 5.01167234062500 
 C -4.28856476562500 4.37126337812500 5.11692434062500 
 N -2.26887676562500 1.41433537812500 4.66155334062500 
 N -2.12250676562500 5.10415237812500 4.83513434062500 
 N -4.42000376562500 0.491151378124997 3.71814834062500 
 N -4.25052376562500 4.13560937812500 3.82027834062500 
 N -4.88822676562500 1.27188437812500 7.58087034062500 
 N -4.94761776562500 4.78935837812500 7.54137934062500 
 S -5.73345976562500 0.883495378124997 6.15704334062500 
 S -5.67116276562500 4.26740337812500 6.15694734062500 
 S -2.86715776562500 0.826406378124997 3.19168234062500 
 S -2.75800676562500 4.64125637812500 3.34156934062500 
 S -3.26640176562500 1.76253537812500 7.30514434062500 
 S -3.34267876562500 5.21953037812500 7.38842734062500 
