16

 C -2.91157290312500 1.45994504062500 5.38095166562500 
 C -3.41113390312500 5.23704204062500 5.26694066562500 
 C -4.08571490312500 1.01070004062500 4.69006966562500 
 C -4.47176690312500 4.45559904062500 4.69191666562500 
 N -1.80630690312500 1.48265704062500 4.61364766562500 
 N -2.34244290312500 5.28048704062500 4.46396866562500 
 N -3.92645290312500 0.799928040625004 3.37787466562500 
 N -4.30238290312500 3.91714804062500 3.48076066562500 
 N -4.73612290312500 1.33360604062500 7.25834966562500 
 N -5.22760790312500 5.17311004062500 7.03745166562500 
 S -5.47816790312500 0.909582040625004 5.82306366562500 
 S -5.76586290312500 4.27676004062500 5.77803066562500 
 S -2.36197690312500 1.19863604062500 3.06678966562500 
 S -2.72497290312500 4.44991404062500 3.07722866562500 
 S -3.12399890312500 1.74174704062500 7.15875866562500 
 S -3.80202690312500 5.93057704062500 6.82337266562500 
