16

 C -3.33294146875000 1.67117284062500 5.46714138125000 
 C -2.95632446875000 5.32708384062500 5.85158338125000 
 C -4.34508746875000 0.898260840624999 4.79299638125000 
 C -4.23296046875000 4.81701684062500 5.27249138125000 
 N -2.26559446875000 2.01032484062500 4.70013238125000 
 N -2.04345646875000 5.61453784062500 4.91711038125000 
 N -4.05592946875000 0.706412840624998 3.49629338125000 
 N -4.23283446875000 4.63896684062500 3.99088038125000 
 N -4.96796146875000 1.05445684062500 7.33349138125000 
 N -4.67954746875000 5.10991584062500 7.75439338125000 
 S -5.66849246875000 0.380635840624999 5.93338138125000 
 S -5.54595546875000 4.62540284062500 6.45015238125000 
 S -2.66960646875000 1.52959784062500 3.18380738125000 
 S -2.74476646875000 5.16731584062500 3.47281638125000 
 S -3.41817246875000 1.63854184062500 7.15168938125000 
 S -3.01710946875000 5.44068584062500 7.64236038125000 
