16

 C -3.03878230625000 1.65256866562500 5.58377549375000 
 C -3.01750730625000 5.29820166562500 5.66879649375000 
 C -4.31637030625000 1.37569766562500 5.00780849375000 
 C -4.22075930625000 4.89200066562500 5.00112949375000 
 N -2.10678530625000 1.81261266562500 4.63262249375000 
 N -1.98718530625000 5.51100266562500 4.83518849375000 
 N -4.32573830625000 1.16841666562500 3.68326349375000 
 N -4.10687330625000 4.76937566562500 3.70374449375000 
 N -4.69014730625000 1.45969866562500 7.55593349375000 
 N -4.91100130625000 4.83661966562500 7.45414349375000 
 S -5.59802130625000 1.29064066562500 6.14504749375000 
 S -5.61126930625000 4.57508466562500 5.99515549375000 
 S -2.79718930625000 1.61019966562500 3.14959449375000 
 S -2.60567830625000 5.15846666562500 3.29141249375000 
 S -3.07652130625000 1.73635666562500 7.34491649375000 
 S -3.31551230625000 5.25826166562500 7.40340849375000 
