16

 C -3.11319808125000 1.04467908125000 5.57107741875000 
 C -3.51954408125000 5.03107208125000 5.12572541875000 
 C -4.40204308125000 0.678960081250003 4.93526241875000 
 C -4.56711208125000 4.26954408125000 4.55309441875000 
 N -2.16520208125000 1.34415408125000 4.72678741875000 
 N -2.55309508125000 5.24818508125000 4.24521341875000 
 N -4.32739508125000 0.595361081250004 3.61203341875000 
 N -4.46329208125000 3.92603908125000 3.26552941875000 
 N -4.80497208125000 0.763637081250003 7.52688741875000 
 N -5.29179208125000 4.80310008125000 7.01610141875000 
 S -5.72059008125000 0.574875081250004 6.14081541875000 
 S -5.86284308125000 3.91466308125000 5.63482341875000 
 S -2.80554908125000 1.10410208125000 3.23834741875000 
 S -2.98978108125000 4.55417308125000 2.84382341875000 
 S -3.12551208125000 1.09056508125000 7.34995741875000 
 S -3.66964808125000 5.19253208125000 6.88458541875000 
