16

 C -3.23704381875000 1.66518937500000 5.43778469375000 
 C -3.02363781875000 4.90281437500000 5.56571669375000 
 C -4.43215981875000 1.35684837500000 4.66388169375000 
 C -4.27239081875000 4.62436637500000 4.86193069375000 
 N -2.18931881875000 1.88553537500000 4.66958669375000 
 N -2.03472081875000 5.11009537500000 4.75432269375000 
 N -4.26207881875000 1.20953437500000 3.35861069375000 
 N -4.17377681875000 4.46249937500000 3.56340269375000 
 N -4.89266781875000 1.09393237500000 7.20228069375000 
 N -4.87391881875000 4.79096737500000 7.32887469375000 
 S -5.72582281875000 0.926958375000001 5.72297069375000 
 S -5.65507081875000 4.60294137500000 5.91719569375000 
 S -2.70186881875000 1.65365737500000 3.04017469375000 
 S -2.59287081875000 4.87817837500000 3.20901269375000 
 S -3.36190481875000 1.69249337500000 7.17429769375000 
 S -3.23830381875000 5.17007337500000 7.23951069375000 
