16

 C -3.00277318125000 1.27617618750000 5.66265472187500 
 C -3.00292318125000 5.20568118750000 5.38667972187500 
 C -4.16856318125000 0.784905187500001 4.98507272187500 
 C -4.03790018125000 4.28795818750000 4.97029872187500 
 N -1.96248418125000 1.43904718750000 4.85274772187500 
 N -2.00324418125000 5.20441518750000 4.50725572187500 
 N -4.08756018125000 0.661314187500000 3.64530972187500 
 N -3.97152518125000 3.85786518750000 3.72566572187500 
 N -4.74036018125000 0.959796187500000 7.52010172187500 
 N -4.83587218125000 5.18596718750000 7.29754072187500 
 S -5.56839718125000 0.746644187500000 6.03831172187500 
 S -5.40971318125000 4.18008818750000 6.09194872187500 
 S -2.49122018125000 0.988448187500000 3.32439272187500 
 S -2.50952918125000 4.39358118750000 3.16650972187500 
 S -3.21516318125000 1.60364318750000 7.41487872187500 
 S -3.25649618125000 5.67886418750000 7.01615472187500 
