16

 C -3.07518837187500 1.78043409375000 5.33041507812500 
 C -3.52768337187500 5.07977309375000 5.11221407812500 
 C -4.11946837187500 0.944255093749996 4.81492607812500 
 C -4.57968937187500 4.21052709375000 4.56614107812500 
 N -1.94851537187500 1.87238109375000 4.61516107812500 
 N -2.47794637187500 5.18666109375000 4.32333907812500 
 N -3.80493537187500 0.470221093749997 3.58762107812500 
 N -4.41342637187500 3.85961709375000 3.29363607812500 
 N -4.69470237187500 1.21691409375000 7.28528907812500 
 N -5.45022937187500 4.95218609375000 6.83995807812500 
 S -5.52158437187500 0.705511093749997 5.91818107812500 
 S -5.96111137187500 4.10690909375000 5.53908907812500 
 S -2.35622637187500 1.11856109375000 3.15941907812500 
 S -2.89106737187500 4.46481009375000 2.87141407812500 
 S -3.35265137187500 2.20387309375000 7.01556007812500 
 S -3.89045937187500 5.47726109375000 6.82687407812500 
