16

 C -2.93051500312500 1.20865598750000 5.59672444687500 
 C -3.05904600312500 5.14437298750000 5.63071144687500 
 C -4.14838900312500 0.892052987499998 4.83892844687500 
 C -4.21745500312500 4.79576598750000 4.91687444687500 
 N -1.88326700312500 1.25113098750000 4.80305544687500 
 N -1.96368800312500 5.23778798750000 4.85671544687500 
 N -4.04656800312500 0.811270987499997 3.55453844687500 
 N -4.04388000312500 4.62282098750000 3.60287544687500 
 N -4.85328900312500 1.30046098750000 7.23546144687500 
 N -4.84218900312500 5.23918698750000 7.48621144687500 
 S -5.53034100312500 0.979335987499997 5.79836644687500 
 S -5.59257300312500 4.82023898750000 5.98343444687500 
 S -2.41904700312500 0.891280987499998 3.19399344687500 
 S -2.44825600312500 4.92595298750000 3.27009244687500 
 S -3.27529900312500 1.63514598750000 7.25380044687500 
 S -3.18403400312500 5.45143998750000 7.29631444687500 
