16

 C -3.40699309687501 1.28460165000000 5.44819513437500 
 C -3.11629709687501 4.92945865000000 5.03527013437500 
 C -4.51528109687501 0.631456649999997 4.81314913437500 
 C -4.31323109687501 4.40076365000000 4.43447613437500 
 N -2.40983409687501 1.66581765000000 4.64820813437500 
 N -2.14805209687501 5.12805765000000 4.17261113437500 
 N -4.39310109687501 0.520895649999997 3.47761513437500 
 N -4.24032809687501 4.29296065000000 3.11251313437500 
 N -5.11642409687501 0.884532649999997 7.30719113437500 
 N -4.96095509687501 4.79169765000000 6.82357513437500 
 S -5.84107509687501 0.380747649999997 5.90886613437500 
 S -5.65911309687501 4.06931865000000 5.46566213437500 
 S -2.85287209687501 1.20581565000000 3.14761713437500 
 S -2.70260309687501 4.78972665000000 2.62894613437500 
 S -3.59290709687501 1.44608565000000 7.18811613437500 
 S -3.35744609687501 5.21326565000000 6.78109113437500 
