16

 C -2.89118900625000 1.36554546875000 5.73436740625000 
 C -3.11111100625000 5.20979846875000 5.47190640625000 
 C -4.16656600625000 0.990106468750000 5.18381140625000 
 C -4.38632500625000 4.79826646875000 4.91623940625000 
 N -1.87335100625000 1.21700246875000 4.88601640625000 
 N -2.12536600625000 5.07328246875000 4.61348740625000 
 N -4.06633300625000 0.509304468750000 3.93184640625000 
 N -4.37459100625000 4.39158946875000 3.65399940625000 
 N -4.66248100625000 1.51756546875000 7.63462540625000 
 N -4.84438200625000 4.97767846875000 7.50470040625000 
 S -5.46992900625000 0.898731468750000 6.35199240625000 
 S -5.65932300625000 4.54022846875000 6.08038140625000 
 S -2.46846100625000 0.583887468750000 3.49241240625000 
 S -2.81034300625000 4.49894346875000 3.16596840625000 
 S -3.10029800625000 1.88555746875000 7.42282840625000 
 S -3.20528300625000 5.24083846875000 7.24987840625000 
