16

 C -3.03976899062500 1.26436799375000 5.66612884687500 
 C -3.00225599062500 4.89839099375000 5.54690984687500 
 C -4.33166999062500 0.859289993750000 5.14988884687500 
 C -4.20673899062500 4.32949499375000 4.94783484687500 
 N -2.02561299062500 1.22381899375000 4.81721984687500 
 N -2.02339099062500 4.81625399375000 4.68374384687500 
 N -4.30691099062500 0.609956993750000 3.83006684687500 
 N -4.18106199062500 4.09045199375000 3.65517984687500 
 N -4.82431099062500 1.26216199375000 7.57929884687500 
 N -4.75539099062500 4.82465299375000 7.41847984687500 
 S -5.64882199062500 0.839754993750000 6.24672384687500 
 S -5.56456899062500 4.37258799375000 5.99056384687500 
 S -2.79721199062500 0.876569993750000 3.32609784687500 
 S -2.60523899062500 4.32011999375000 3.21695384687500 
 S -3.16948699062500 1.61346299375000 7.34711084687500 
 S -3.12994699062500 5.27725799375000 7.23121784687500 
