16

 C -3.16379277500000 1.62755152500000 5.57154619062500 
 C -3.18593377500000 5.01848952500000 5.54109919062500 
 C -4.50051977500000 1.48841352500000 5.04311219062500 
 C -4.40000077500000 4.65126852500000 4.85190119062500 
 N -2.22098077500000 1.76204352500000 4.67158719062500 
 N -2.17756677500000 5.28524152500000 4.71954219062500 
 N -4.50605177500000 1.32777352500000 3.72749019062500 
 N -4.29236377500000 4.51043952500000 3.52969119062500 
 N -4.70459777500000 1.61500952500000 7.64194619062500 
 N -4.85852077500000 4.57638552500000 7.37802119062500 
 S -5.68034077500000 1.48942052500000 6.30498519062500 
 S -5.68809377500000 4.46670252500000 5.98671719062500 
 S -2.91099977500000 1.59781252500000 3.14879719062500 
 S -2.75055877500000 5.04680752500000 3.17937819062500 
 S -3.05421977500000 1.63202652500000 7.30071019062500 
 S -3.20229677500000 4.82707852500000 7.25769119062500 
