16

 C -3.16616320312500 0.932592209375004 5.59559389687500 
 C -2.94585420312500 5.08916020937500 5.59737289687500 
 C -4.33197720312500 0.528051209375004 4.86067689687500 
 C -4.11535420312500 4.54778120937500 4.95014389687500 
 N -2.08248420312500 1.21640220937500 4.83602089687500 
 N -1.91444620312500 5.26132620937500 4.79441989687500 
 N -4.12955720312500 0.498316209375004 3.51360389687500 
 N -4.01785420312500 4.47484420937500 3.62048789687500 
 N -5.13219720312500 1.05340520937500 7.35689989687500 
 N -4.71565820312500 4.77670420937500 7.45366989687500 
 S -5.82851520312500 0.399934209375004 6.01623089687500 
 S -5.47216020312500 4.27548320937500 6.07726889687500 
 S -2.53045520312500 0.824938209375004 3.26363889687500 
 S -2.39598820312500 4.84872320937500 3.26146689687500 
 S -3.50178220312500 1.27387420937500 7.31207689687500 
 S -3.16056720312500 5.34733520937500 7.27715089687500 
