16

 C -3.33799350937500 1.20468538125000 5.43002329687500 
 C -3.20120850937500 5.20309838125000 5.11014729687500 
 C -4.43693250937500 0.583647381250002 4.75354029687500 
 C -4.21597150937500 4.43041438125000 4.43757929687500 
 N -2.31254450937500 1.51535238125000 4.64978929687500 
 N -2.32470350937500 5.70060238125000 4.27727929687500 
 N -4.23585050937500 0.428478381250002 3.45655329687500 
 N -4.10415750937500 4.33606238125000 3.10400729687500 
 N -5.14040550937500 0.845390381250002 7.21792829687500 
 N -4.81833350937500 4.25245638125000 6.87130029687500 
 S -5.77983850937500 0.197964381250003 5.84623829687500 
 S -5.46168850937500 3.89356438125000 5.41827429687500 
 S -2.75710650937500 1.16538738125000 3.09361129687500 
 S -2.71383450937500 5.15370438125000 2.70309629687500 
 S -3.61249650937500 1.44544938125000 7.13231329687500 
 S -3.47898950937500 5.22066038125000 6.81613829687500 
