16

 C -3.21882475937500 1.42152312500000 5.66750366250000 
 C -3.34806375937500 5.13276512500000 5.39588066250000 
 C -4.37106675937500 0.822273125000003 4.96467666250000 
 C -4.55982675937500 4.68822212500000 4.77006566250000 
 N -2.18461475937500 1.68187412500000 4.86462766250000 
 N -2.29565875937500 5.40161612500000 4.59608266250000 
 N -4.19109475937500 0.771751125000003 3.64692766250000 
 N -4.44654075937500 4.78868912500000 3.45213066250000 
 N -5.07583075937500 1.18505912500000 7.37123566250000 
 N -5.08860175937500 4.87570512500000 7.29577566250000 
 S -5.72174375937500 0.592221125000004 5.95900466250000 
 S -5.89482775937500 4.40740512500000 5.89462566250000 
 S -2.63940775937500 1.17307912500000 3.38949466250000 
 S -2.86190175937500 5.17295212500000 3.08098166250000 
 S -3.49566575937500 1.59848112500000 7.37006166250000 
 S -3.49817175937500 5.27472212500000 7.09282166250000 
