16

 C -2.97127936562500 1.91123449062500 5.41913925937500 
 C -3.62837036562500 5.17736649062500 5.52891125937500 
 C -4.02080436562500 1.14738849062500 4.77389925937500 
 C -4.73682036562500 4.51727849062500 4.88851925937500 
 N -1.92452436562500 2.21929049062500 4.61336625937500 
 N -2.64294636562500 5.57490149062500 4.75374425937500 
 N -3.84241236562500 0.907018490625001 3.46843425937500 
 N -4.46348836562500 4.24290649062500 3.61614725937500 
 N -4.61706636562500 1.05765749062500 7.25996725937500 
 N -5.26485436562500 4.76191149062500 7.38922525937500 
 S -5.23447836562500 0.451239490625001 5.82120925937500 
 S -5.84199636562500 3.94113449062500 6.00552825937500 
 S -2.35502336562500 1.48072749062500 3.15470025937500 
 S -3.03502336562500 5.00198049062500 3.24488225937500 
 S -3.16005736562500 1.87104549062500 7.16112725937500 
 S -3.75964736562500 5.41604649062500 7.24963725937500 
