16

 C -3.32356278437500 1.49731650312500 5.46964225625000 
 C -3.06133178437500 5.19473050312500 5.88379125625000 
 C -4.53752578437500 1.16726450312500 4.77069825625000 
 C -4.37969178437500 4.95042250312500 5.27064025625000 
 N -2.24697578437500 1.65452850312500 4.68397425625000 
 N -2.09210678437500 5.23743450312500 4.97217225625000 
 N -4.41714978437500 1.09075150312500 3.43894525625000 
 N -4.41732478437500 4.81948950312500 3.97033525625000 
 N -5.03882478437500 1.06735950312500 7.37380325625000 
 N -4.78242978437500 5.08762450312500 7.86135925625000 
 S -5.84296378437500 0.719722503125003 5.90730425625000 
 S -5.63930078437500 5.02384650312500 6.44552725625000 
 S -2.82312078437500 1.53244150312500 3.13041225625000 
 S -2.79298178437500 5.05715950312500 3.52509925625000 
 S -3.47252278437500 1.59939250312500 7.21078725625000 
 S -3.16315578437500 5.37582350312500 7.61016725625000 
