16

 C -3.28287482187500 1.37021541875000 5.44345914375000 
 C -3.14816382187500 5.42134941875000 5.76181514375000 
 C -4.38677082187500 0.811037418750001 4.74936214375000 
 C -4.31629182187500 5.02153241875000 5.01919014375000 
 N -2.23876382187500 1.66000441875000 4.68409714375000 
 N -2.07532982187500 5.51435641875000 5.01339614375000 
 N -4.27324882187500 0.699102418750001 3.42001914375000 
 N -4.15454782187500 5.05085841875000 3.70650814375000 
 N -5.20046382187500 1.16075841875000 7.16489314375000 
 N -5.03796782187500 5.24031041875000 7.40866014375000 
 S -5.73146082187500 0.385812418750000 5.81122714375000 
 S -5.74480382187500 5.06937641875000 5.94891714375000 
 S -2.74784782187500 1.26579841875000 3.07795414375000 
 S -2.54967482187500 5.28786041875000 3.39996514375000 
 S -3.52651682187500 1.47041241875000 7.20255414375000 
 S -3.44300482187500 5.54788941875000 7.55904414375000 
