16

 C -2.84823942187500 1.29301967187500 5.73469291562500 
 C -2.93579542187500 4.89516067187500 5.40373691562500 
 C -4.18008642187500 1.21957367187500 5.20569091562500 
 C -4.14638842187500 4.57222067187500 4.70566291562500 
 N -1.91122642187500 1.01743567187500 4.76711491562500 
 N -1.84454642187500 4.87514267187500 4.63103791562500 
 N -4.37123242187500 0.759323671875002 3.97113791562500 
 N -4.01380042187500 4.32100767187500 3.40999491562500 
 N -4.55617542187500 1.59620567187500 7.64001391562500 
 N -4.78934142187500 4.87503567187500 7.26689391562500 
 S -5.48889842187500 1.43553467187500 6.29386291562500 
 S -5.58146042187500 4.50300167187500 5.87082491562500 
 S -2.77178542187500 0.583272671875001 3.37441591562500 
 S -2.32210342187500 4.44844567187500 3.12024691562500 
 S -2.88471542187500 1.53781367187500 7.42951591562500 
 S -3.04615842187500 4.87724167187500 7.10568491562500 
