16

 C -3.45069565937500 1.53835696875000 5.49336322812500 
 C -3.02044165937500 5.14546696875000 5.41891822812500 
 C -4.45738465937500 0.680076968749996 4.91224722812500 
 C -4.22958265937500 4.77014696875000 4.74204522812500 
 N -2.40814565937500 1.82788596875000 4.70184322812500 
 N -1.87348365937500 5.19911696875000 4.70977122812500 
 N -4.12388065937500 0.195013968749996 3.74508522812500 
 N -4.00775165937500 4.49003696875000 3.42252622812500 
 N -5.23252165937500 0.883825968749997 7.37120722812500 
 N -4.82367265937500 4.97170096875000 7.17844522812500 
 S -5.79297765937500 0.288566968749996 5.88168022812500 
 S -5.64683165937500 4.96080396875000 5.81782122812500 
 S -2.77838565937500 0.976676968749996 3.31406922812500 
 S -2.36301265937500 4.78858696875000 3.21049122812500 
 S -3.83309365937500 1.78362096875000 7.21808022812500 
 S -3.24973965937500 5.47250296875000 7.10254922812500 
