16

 C -2.92631716562500 1.44118745000000 5.34560831875000 
 C -3.08741416562500 5.10396145000000 5.51256231875000 
 C -4.22803116562500 0.998861449999998 4.68206831875000 
 C -4.21534916562500 4.53697245000000 4.85359231875000 
 N -1.97083716562500 1.64854945000000 4.45477131875000 
 N -2.05954816562500 5.36732845000000 4.68043331875000 
 N -4.19028916562500 0.973854449999998 3.35623031875000 
 N -4.17486716562500 4.56704345000000 3.52797231875000 
 N -4.58407116562500 1.17055345000000 7.21057031875000 
 N -4.96524116562500 4.75144045000000 7.25842531875000 
 S -5.49152116562500 0.972100449999998 5.83544531875000 
 S -5.57586516562500 4.17746545000000 5.84682431875000 
 S -2.65103316562500 1.30638045000000 2.95687031875000 
 S -2.65278316562500 4.97611545000000 3.11699631875000 
 S -2.96867616562500 1.61882345000000 7.01472131875000 
 S -3.40630216562500 5.23797445000000 7.21207431875000 
