16

 C -3.28744547500000 1.56760366562500 5.49733285000000 
 C -3.10982647500000 5.20021566562500 5.69098685000000 
 C -4.54109247500000 1.12083066562500 4.91248985000000 
 C -4.30683947500000 4.65294266562500 5.10880085000000 
 N -2.36346247500000 1.80631766562500 4.55432685000000 
 N -2.04266547500000 5.30899366562500 4.83795985000000 
 N -4.58065647500000 1.10161066562500 3.60434885000000 
 N -4.23082947500000 4.70213066562500 3.76065285000000 
 N -4.83503547500000 1.11191066562500 7.48626785000000 
 N -4.91499947500000 5.10025766562500 7.53841185000000 
 S -5.74139947500000 0.997269665625002 6.17869485000000 
 S -5.58561547500000 4.38945166562500 6.14594785000000 
 S -3.06239547500000 1.38893166562500 3.05729985000000 
 S -2.69175247500000 5.04283266562500 3.35390285000000 
 S -3.24458847500000 1.69877366562500 7.29294385000000 
 S -3.25418747500000 5.44475366562500 7.41071985000000 
