16

 C -3.18245301875000 0.851090300000001 5.41847935625000 
 C -3.19395101875000 4.54727630000000 5.52311535625000 
 C -4.44247501875000 0.524969300000001 4.80546835625000 
 C -4.51700501875000 4.65192230000000 4.92505035625000 
 N -2.23275501875000 1.28311230000000 4.56363035625000 
 N -2.17020501875000 4.42966030000000 4.72443735625000 
 N -4.45010701875000 0.684759300000001 3.48342535625000 
 N -4.46016601875000 4.72195730000000 3.58284035625000 
 N -4.86090601875000 0.430518300000001 7.33545335625000 
 N -4.83875001875000 4.67982330000000 7.51114835625000 
 S -5.69185701875000 0.230111300000001 5.94922835625000 
 S -5.83120901874999 4.63965230000000 6.15076435625000 
 S -2.92818701875000 1.16713130000000 3.03589535625000 
 S -2.84460201875000 4.62065530000000 3.22535335625000 
 S -3.27210101875000 0.910297300000001 7.17561435625000 
 S -3.17674001875000 4.79769330000000 7.25174935625000 
