16

 C -3.28487453437500 1.41801319375000 5.66930812812500 
 C -3.56083053437500 5.27285619375000 5.48557712812500 
 C -4.47896153437500 0.882675193749999 4.99735112812500 
 C -4.67808753437500 4.61378119375000 4.87145712812500 
 N -2.37899253437500 1.81828119375000 4.83989412812500 
 N -2.54369453437500 5.59703919375000 4.73532312812500 
 N -4.36336653437500 0.810723193749999 3.67115712812500 
 N -4.44543253437500 4.45046019375000 3.59249012812500 
 N -4.87657053437500 0.998576193749999 7.57177112812500 
 N -5.32233953437500 4.90570619375000 7.30745812812500 
 S -5.72747153437500 0.549188193749999 6.13867212812500 
 S -5.91409553437500 4.15696019375000 5.96289412812500 
 S -2.86184453437500 1.31430719375000 3.30261212812500 
 S -2.96929753437500 5.09424919375000 3.24386112812500 
 S -3.28500353437500 1.55937519375000 7.39131712812500 
 S -3.79715653437500 5.54140719375000 7.20425512812500 
