16

 C -3.08015840000000 1.63294807187500 5.47205845000000 
 C -3.57358340000000 5.00196307187500 5.07225945000000 
 C -4.11103240000000 0.781611071874997 4.91530345000000 
 C -4.69821240000000 4.29895507187500 4.45904645000000 
 N -2.24232740000000 2.02775907187500 4.53372845000000 
 N -2.56026040000000 5.29293507187500 4.27011245000000 
 N -3.93335540000000 0.367275071874998 3.70994545000000 
 N -4.41572940000000 3.90394507187500 3.23847945000000 
 N -4.76676440000000 1.25209307187500 7.36150645000000 
 N -5.47346540000000 4.87630207187500 6.89415945000000 
 S -5.41529140000000 0.653844071874998 5.95291945000000 
 S -6.02475140000000 4.00088607187500 5.51307445000000 
 S -2.49573840000000 1.05430007187500 3.18404045000000 
 S -2.93348040000000 4.52408507187500 2.79602745000000 
 S -3.40852540000000 2.18902507187500 7.07757845000000 
 S -3.84222440000000 5.27130107187500 6.74310445000000 
