16

 C -3.12112285000000 1.36109957187500 5.29175566250000 
 C -3.02451785000000 4.94743457187500 5.55531566250000 
 C -4.24716785000000 0.643833571875001 4.66781766250000 
 C -4.31041285000000 4.63232357187500 5.03984066250000 
 N -2.24088285000000 1.72306257187500 4.37400966250000 
 N -2.01439285000000 5.03249357187500 4.66332266250000 
 N -4.06624785000000 0.434554571875001 3.37267066250000 
 N -4.28677085000000 4.54325657187500 3.70858666250000 
 N -4.90810885000000 0.968990571875001 7.18030066250000 
 N -4.61010985000000 4.85700857187500 7.62282666250000 
 S -5.55121685000000 0.290326571875001 5.78774466250000 
 S -5.54464485000000 4.40493257187500 6.29527066250000 
 S -2.59739885000000 1.08047557187500 2.92328366250000 
 S -2.74023785000000 4.77013357187500 3.21868966250000 
 S -3.39865285000000 1.57530957187500 7.02905266250000 
 S -2.99153685000000 5.04590457187500 7.26672966250000 
