16

 C -3.07197710937500 1.33715549375000 5.75657404375000 
 C -2.96818910937500 4.89334949375000 5.47716404375000 
 C -4.40091410937500 1.05081249375000 5.32230904375000 
 C -4.23515810937500 4.69825549375000 4.77144304375000 
 N -2.21309110937500 1.13282549375000 4.76236104375000 
 N -1.89118210937500 4.89068549375000 4.73514604375000 
 N -4.53864510937500 0.694949493749997 4.01509504375000 
 N -4.07491810937500 4.73092549375000 3.44109404375000 
 N -4.72214110937500 1.78792149375000 7.79144004375000 
 N -4.56846410937500 4.58892349375000 7.41515804375000 
 S -5.63806510937500 1.18039349375000 6.47881504375000 
 S -5.56165410937500 4.38527049375000 5.98898104375000 
 S -3.07028210937500 0.574894493749998 3.42421004375000 
 S -2.44603710937500 4.74236749375000 3.18641604375000 
 S -3.06631710937500 1.80194449375000 7.51611104375000 
 S -2.98795010937500 4.89392149375000 7.17633404375000 
