16

 C -3.08486776875000 1.27706909062500 5.54946732500000 
 C -3.37870876875000 5.03020709062500 5.46853632500000 
 C -4.38306776875000 0.973231090625001 4.96803732500000 
 C -4.53292876875000 4.52144509062500 4.79340532500000 
 N -2.07168976875000 1.34033609062500 4.64770832500000 
 N -2.38867676875000 5.37438609062500 4.66567632500000 
 N -4.36168776875000 0.783158090625001 3.61541132500000 
 N -4.48647076875000 4.39353409062500 3.46097232500000 
 N -4.86964176874999 1.17841809062500 7.37327532500000 
 N -5.05405876875000 4.61471009062500 7.39229132500000 
 S -5.74337576875000 0.907725090625000 6.02195432500000 
 S -5.85945376875000 4.15042109062500 5.91489132500000 
 S -2.83045476875000 1.12261009062500 3.12306732500000 
 S -2.96441676875000 4.99487009062500 3.10332632500000 
 S -3.30292476875000 1.61993109062500 7.25839532500000 
 S -3.52006376875000 5.17750309062500 7.22875432500000 
