16

 C -3.16091896562500 1.37166578437500 5.54537465312500 
 C -2.93168496562500 5.23486278437500 5.86127765312500 
 C -4.35803896562500 0.996925784375001 4.90200365312500 
 C -4.09840796562500 4.76013778437500 5.17048565312500 
 N -2.15065196562500 1.68285878437500 4.76191765312500 
 N -1.87309696562500 5.51374778437500 5.12416465312500 
 N -4.20904696562500 0.807433784375001 3.60139665312500 
 N -3.86579596562500 4.53675078437500 3.90444865312500 
 N -4.85944196562500 0.845266784375001 7.31197365312500 
 N -4.80330696562500 4.81694378437500 7.67049865312500 
 S -5.68240496562500 0.695391784375000 5.88636765312500 
 S -5.53858596562500 4.72523178437500 6.18438765312500 
 S -2.71001796562500 1.44169078437500 3.20522965312500 
 S -2.33053896562500 5.13330578437500 3.56912165312500 
 S -3.25121096562500 1.37951078437500 7.27574665312500 
 S -3.17877996562500 5.33941578437500 7.53675665312500 
