16

 C -3.36154202812500 1.15931740000000 5.83914129687500 
 C -3.20446202812500 5.04647040000000 5.23241129687500 
 C -4.63237602812500 0.859993399999997 5.04013929687500 
 C -4.37461402812500 4.54689040000000 4.55518729687500 
 N -2.29461002812500 1.43758940000000 5.11932129687500 
 N -2.18328502812500 5.18353440000000 4.41677029687500 
 N -4.39724502812500 0.805309399999997 3.73553429687500 
 N -4.28379302812500 4.41902540000000 3.24481729687500 
 N -5.27917202812500 0.856508399999998 7.58473729687500 
 N -5.03169102812500 4.85371340000000 7.02353129687500 
 S -6.01684802812500 0.702296399999998 6.09868529687500 
 S -5.78536902812500 4.51648340000000 5.58873229687500 
 S -2.80563702812500 1.24543140000000 3.56018329687500 
 S -2.70276402812500 4.81355340000000 2.87031329687500 
 S -3.69472502812500 1.43254940000000 7.51955529687500 
 S -3.47294002812500 5.36478940000000 6.87747329687500 
