16

 C -2.88420787812500 1.69202107500000 5.49241638125000 
 C -3.22137287812500 5.07330107500000 5.68852538125000 
 C -4.12828287812500 1.29506107500000 4.92954038125000 
 C -4.42817287812500 4.69950107500000 5.01483038125000 
 N -1.97901387812500 1.95773207500000 4.54307438125000 
 N -2.22473787812500 5.35565307500000 4.84676038125000 
 N -4.12084587812500 1.19634607500000 3.59979638125000 
 N -4.31555787812500 4.47979907500000 3.69947238125000 
 N -4.48636587812500 1.76183507500000 7.45816938125000 
 N -4.94962687812500 4.96352607500000 7.53058638125000 
 S -5.38317487812500 1.42280807500000 6.12007038125000 
 S -5.71417187812500 4.62183307500000 6.14350838125000 
 S -2.58109487812500 1.50394407500000 3.06549838125000 
 S -2.77958587812500 4.95529907500000 3.28512038125000 
 S -2.89292287812500 1.98585507500000 7.21168038125000 
 S -3.32147587812500 5.26260907500000 7.42314538125000 
