16

 C -3.18489902187500 1.25054485937500 5.41180955312500 
 C -3.04744002187500 4.80325585937500 5.55147655312500 
 C -4.31852602187500 0.687062859374998 4.68440455312500 
 C -4.28643302187500 4.39275585937500 4.86679555312500 
 N -2.12189802187500 1.49623685937500 4.65440455312500 
 N -1.98227802187500 4.80462885937500 4.73686555312500 
 N -4.09935202187500 0.422443859374999 3.39548655312500 
 N -4.15770002187500 4.08383885937500 3.58018355312500 
 N -5.05132502187500 1.04915385937500 7.18377155312500 
 N -4.91268702187500 5.04225585937500 7.26357055312500 
 S -5.69689802187500 0.381819859374999 5.78205055312500 
 S -5.68523902187500 4.45555185937500 5.89816655312500 
 S -2.55573402187500 1.02160885937500 3.11506755312500 
 S -2.54497002187500 4.40306985937500 3.23280855312500 
 S -3.50009102187500 1.70113785937500 7.07680055312500 
 S -3.30132902187500 5.45591485937500 7.13199955312500 
