16

 C -3.25301567187500 1.41845318750000 5.58993833125000 
 C -3.09648267187500 5.18754218750000 5.48161833125000 
 C -4.42432767187500 1.22769318750000 4.83388133125000 
 C -4.30639267187500 4.74960418750000 4.84541933125000 
 N -2.16671467187500 1.78630418750000 4.94932133125000 
 N -2.07631667187500 5.35765218750000 4.66449533125000 
 N -4.23394267187500 1.29541518750000 3.50210633125000 
 N -4.21100867187500 4.75958318750000 3.50235833125000 
 N -5.04983467187500 1.06276618750000 7.36605433125000 
 N -4.78801767187500 5.30244618750000 7.29290933125000 
 S -5.75295967187500 0.844969187499999 5.90780633125000 
 S -5.67047867187500 4.65247318750000 6.00329433125000 
 S -2.63323367187500 1.77507118750000 3.29512333125000 
 S -2.57976467187500 5.07449418750000 3.12993633125000 
 S -3.42614867187500 1.13648918750000 7.32986333125000 
 S -3.11741667187500 5.46334018750000 7.21695033125000 
