16

 C -3.09726330625000 1.59503240312500 5.46065174687500 
 C -3.06109130625000 5.31940340312500 5.48064074687500 
 C -4.31295330625000 1.19736640312500 4.82289474687500 
 C -4.30471530625000 4.99204440312500 4.82439774687500 
 N -2.07022130625000 1.83489840312500 4.66668474687500 
 N -2.02373930625000 5.38432240312500 4.67157574687500 
 N -4.15777130625000 1.04661140312500 3.51345574687500 
 N -4.18854330625000 4.83500840312500 3.50596274687500 
 N -4.77602330625000 1.37961840312500 7.34596374687500 
 N -4.78014230625000 5.02341240312500 7.40518074687500 
 S -5.61461230625000 1.03780240312500 5.91311574687500 
 S -5.59733330625000 4.90711740312500 5.94602574687500 
 S -2.50059630625000 1.37806940312500 3.19320874687500 
 S -2.58311830625000 5.12027340312500 3.14812074687500 
 S -3.17678530625000 1.71780940312500 7.18020474687500 
 S -3.13200630625000 5.44322940312500 7.24062074687500 
