16

 C -3.09820999062501 1.44758421250000 5.29721597500000 
 C -3.25808799062501 5.20812321250000 5.36457397500000 
 C -4.34732599062501 1.00446221250000 4.81011097500000 
 C -4.46534899062500 4.57024321250000 4.86351197500000 
 N -2.09933899062501 1.42650121250000 4.43882097500000 
 N -2.47715599062500 5.45094521250000 4.32983597500000 
 N -4.25088599062501 0.676557212499997 3.48885197500000 
 N -4.51824199062501 4.35524321250000 3.54883597500000 
 N -4.57885499062500 1.30782821250000 7.39164597500000 
 N -4.86684599062501 4.74959321250000 7.39557097500000 
 S -5.59151599062501 0.903984212499997 6.12918397500000 
 S -5.64544099062500 4.20497021250000 6.03711997500000 
 S -2.72852899062501 0.968335212499998 3.02223597500000 
 S -3.12245299062501 4.91846421250000 2.91269697500000 
 S -2.95956799062501 1.55681121250000 6.95895497500000 
 S -3.26800699062501 5.31082421250000 7.11914897500000 
