16

 C -3.19580233125000 1.18900184375001 5.37499157187500 
 C -3.03315533125000 5.32364184375001 5.62188457187500 
 C -4.34127333125000 0.531984843750005 4.78719857187500 
 C -4.27060033125000 4.76279084375001 5.02511157187500 
 N -2.07378733125000 1.24993684375001 4.64704957187500 
 N -2.07491833125000 5.46858984375001 4.73388757187500 
 N -4.09249033125000 -1.344915624999388E-002 3.60427757187500 
 N -4.17859333125000 4.43674784375001 3.76418457187500 
 N -5.04008733125000 1.19631484375001 7.24190657187500 
 N -4.93128233125000 5.14965084375001 7.45178457187500 
 S -5.76375133125000 0.630587843750006 5.82100857187500 
 S -5.69364333125000 4.74916484375001 5.96087757187500 
 S -2.47472433125000 0.476916843750006 3.25447157187500 
 S -2.64551433125000 4.91995984375001 3.26962557187500 
 S -3.44847433125000 1.76538184375001 7.00716457187500 
 S -3.32935033125000 5.68249084375001 7.33522157187500 
