16

 C -3.22799179375000 1.21922195000000 5.28970410312500 
 C -2.87445279375000 5.07237495000000 5.44064010312500 
 C -4.46061779375000 0.840331950000000 4.65591510312500 
 C -4.07515479375000 4.54506995000000 4.78539110312500 
 N -2.19132279375000 1.21043595000000 4.46444510312500 
 N -1.92672479375000 5.37191495000000 4.57220010312500 
 N -4.41780979375000 0.535721950000000 3.35432510312500 
 N -3.97490879375000 4.25005695000000 3.47107810312500 
 N -5.07826479375000 1.64264295000000 6.98038010312500 
 N -4.80706079375000 5.10076995000000 7.18028210312500 
 S -5.84301579375000 0.963930950000000 5.67104210312500 
 S -5.41805079375000 4.36188395000000 5.84937410312500 
 S -2.84159579375000 0.815959950000001 2.96799210312500 
 S -2.44975079375000 4.83184795000000 3.09069810312500 
 S -3.37696879375000 1.62584595000000 6.99529910312500 
 S -3.20159279375000 5.58392895000000 7.06535710312500 
