16

 C -3.11464877812500 1.50598442500000 5.64335957812500 
 C -3.13949377812500 4.86422242500000 5.48233457812500 
 C -4.43226477812500 1.32123442500000 5.12951357812500 
 C -4.43339777812500 4.65687342500000 4.85314057812500 
 N -2.18491077812500 1.66937742500000 4.71136457812500 
 N -2.11657977812500 5.07426042500000 4.65160657812500 
 N -4.48900477812500 1.20120442500000 3.82600057812500 
 N -4.34897577812500 4.62467242500000 3.54236657812500 
 N -4.76118677812500 1.65405742500000 7.61653557812500 
 N -4.98741677812500 4.77938942500000 7.29328957812500 
 S -5.66673577812500 1.30377742500000 6.23725557812500 
 S -5.81188577812500 4.56625742500000 5.90584157812500 
 S -2.90715277812500 1.48256042500000 3.21917357812500 
 S -2.77409077812500 4.88947742500000 3.09333157812500 
 S -3.12310777812500 1.77007242500000 7.33766657812500 
 S -3.34720377812500 4.99354842500000 7.24224757812500 
