16

 C -3.33631025312500 1.21542443750000 5.42156034375000 
 C -3.18776825312500 5.17289643750000 5.07399534375000 
 C -4.42016025312500 0.570645437499999 4.72012834375000 
 C -4.22602225312500 4.43187443750000 4.40485934375000 
 N -2.32528825312500 1.57783543750000 4.63803334375000 
 N -2.30288725312500 5.65291243750000 4.23666234375000 
 N -4.24782325312500 0.368177437499998 3.41788334375000 
 N -4.12762025312500 4.34646743750000 3.09758234375000 
 N -5.13074725312500 0.850023437499998 7.24261134375000 
 N -4.78882525312500 4.23997443750000 6.87436934375000 
 S -5.77571125312500 0.190250437499999 5.85010634375000 
 S -5.47112425312500 3.88745343750000 5.40350534375000 
 S -2.76631725312500 1.17947043750000 3.11443334375000 
 S -2.69248725312500 5.14051243750000 2.69068434375000 
 S -3.61077225312500 1.46375743750000 7.13688934375000 
 S -3.47358425312500 5.21993943750000 6.81282934375000 
