16

 C -3.12197805937501 1.32372032812500 5.47308406875000 
 C -3.06393405937501 5.15561032812500 5.65749106875000 
 C -4.24582805937501 0.659688328124998 4.79676006875000 
 C -4.15290705937501 4.54516332812500 4.86098806875000 
 N -2.14271105937501 1.72479132812500 4.74475006875000 
 N -1.97610605937501 5.31719632812500 4.87504406875000 
 N -4.13963805937501 0.649334328124997 3.48506806875000 
 N -4.04102005937501 4.36850932812500 3.56994506875000 
 N -4.87923705937501 0.911456328124999 7.29796706875000 
 N -5.25422705937501 5.10550732812500 7.14683506875000 
 S -5.61473705937501 0.357876328124998 5.92348106875000 
 S -5.61595005937501 4.25789732812500 5.76961606875000 
 S -2.55616405937501 1.35355532812500 3.16434306875000 
 S -2.44887305937501 4.86803332812500 3.30726306875000 
 S -3.33355105937501 1.57003232812500 7.10644406875000 
 S -3.55975605937501 5.60493532812500 7.25935406875000 
