16

 C -3.16959475000000 1.64104492500000 5.38911203437500 
 C -3.02635775000000 4.95413892500000 5.47143803437500 
 C -4.32877675000000 1.16759492500000 4.67426503437500 
 C -4.30413575000000 4.69554092500000 4.79066703437500 
 N -2.13846975000000 1.94547192500000 4.57284003437500 
 N -1.98476375000000 5.11026092500000 4.68919003437500 
 N -4.22106775000000 1.20963492500000 3.34970403437500 
 N -4.14954175000000 4.69521292500000 3.48871903437500 
 N -5.00872475000000 1.06330992500000 7.21865003437500 
 N -4.86256175000000 4.97498392500000 7.35814603437500 
 S -5.72387975000000 0.916938925000000 5.76565003437500 
 S -5.71320575000000 4.67065592500000 5.89713803437500 
 S -2.64705775000000 1.60242792500000 3.04425803437500 
 S -2.57014875000000 4.98514192500000 3.13037203437500 
 S -3.42802875000000 1.64278592500000 7.07801703437500 
 S -3.17561475000000 4.96571792500000 7.19208703437500 
