16

 C -3.13165993437500 1.52665277500000 5.89056659375000 
 C -3.10547993437500 5.04953477500000 5.74441259375000 
 C -4.39057793437500 1.00572277500000 5.33201159375000 
 C -4.27054693437500 4.54781677500000 5.06700559375000 
 N -2.13500293437500 1.57250177500000 4.97355459375000 
 N -2.09118293437500 5.28842277500000 4.98423259375000 
 N -4.41694993437500 0.741927775000001 4.03735359375000 
 N -4.09156093437500 4.43344777500000 3.76091459375000 
 N -5.00695893437500 1.31456477500000 7.78525459375000 
 N -4.85010693437500 4.94413577500000 7.51723759375000 
 S -5.73964893437500 0.977430775000000 6.30850459375000 
 S -5.58802293437500 4.37362177500000 6.19176959375000 
 S -2.89212293437500 1.17986177500000 3.47614059375000 
 S -2.52857993437500 5.01255977500000 3.44526059375000 
 S -3.38527493437500 1.78606277500000 7.62905359375000 
 S -3.24382293437500 5.27936777500000 7.42012259375000 
