16

 C -3.09665045000000 1.23951614062500 5.67525818750000 
 C -3.04660745000000 4.80890514062500 5.55049418750000 
 C -4.37934345000000 0.851590140624999 5.10621618750000 
 C -4.29147045000000 4.50191814062500 4.93999518750000 
 N -2.13442745000000 1.19889514062500 4.75411118750000 
 N -1.98190645000000 4.84562414062500 4.72677018750000 
 N -4.36903045000000 0.520194140624999 3.83731218750000 
 N -4.21595345000000 4.07004014062500 3.68267918750000 
 N -4.76873145000000 1.27236114062500 7.60353318750000 
 N -4.81996845000000 4.83093814062500 7.45847718750000 
 S -5.68075345000000 0.836806140624999 6.24801118750000 
 S -5.54936845000000 4.37733414062500 6.02661418750000 
 S -2.78762745000000 0.841556140624999 3.28528818750000 
 S -2.63513645000000 4.36036414062500 3.25668218750000 
 S -3.18829945000000 1.66056014062500 7.43327718750000 
 S -3.19669945000000 5.23380214062500 7.25206718750000 
