16

 C -2.88762325937500 1.72147329687500 5.73601037187500 
 C -3.33843025937500 5.38667829687500 5.34192737187500 
 C -4.15299525937500 1.51245629687500 5.11592937187500 
 C -4.55720225937500 4.91843729687500 4.73686937187500 
 N -1.87112425937500 1.88378329687500 4.91409037187500 
 N -2.29863525937500 5.62257629687500 4.54858037187500 
 N -4.09979625937500 1.54954629687500 3.79674637187500 
 N -4.50639525937500 4.86027529687500 3.42585837187500 
 N -4.69535925937500 1.66584629687500 7.62939637187500 
 N -4.97939125937500 5.08386029687500 7.33253137187500 
 S -5.47534125937500 1.42550029687500 6.17851337187500 
 S -5.69619425937500 4.46799929687500 6.01617037187500 
 S -2.56105525937500 1.72566229687500 3.33419037187500 
 S -2.96253125937500 5.33748829687500 3.01273337187500 
 S -3.00664525937500 1.76570829687500 7.44875637187500 
 S -3.43615925937500 5.72502829687500 7.03393837187500 
