16

 C -3.28786915000000 1.43024267500000 5.67278118750000 
 C -3.55247915000000 5.33839267500000 5.51910818750000 
 C -4.41557215000000 0.845384674999998 5.03618318750000 
 C -4.60361715000000 4.55843467500000 4.88120318750000 
 N -2.33846515000000 1.80672867500000 4.79181518750000 
 N -2.50225415000000 5.59638967500000 4.74085018750000 
 N -4.36188215000000 0.785367674999998 3.71158618750000 
 N -4.46943415000000 4.48188667500000 3.56403018750000 
 N -4.86067515000000 0.945485674999999 7.57932618750000 
 N -5.37226115000000 4.93798867500000 7.29442018750000 
 S -5.71615515000000 0.505790674999998 6.15529318750000 
 S -5.91898715000000 4.12627667500000 5.92920718750000 
 S -2.81571915000000 1.27674167500000 3.28505418750000 
 S -2.97039215000000 5.04898167500000 3.23084418750000 
 S -3.32552515000000 1.55930767500000 7.39426518750000 
 S -3.80757415000000 5.56375967500000 7.14042518750000 
