16

 C -3.12147547187500 1.37657430312500 5.52473465625000 
 C -3.25186847187500 5.08214530312500 5.13858465625000 
 C -4.36317747187500 0.937992303124999 4.95781765625000 
 C -4.38216747187500 4.35047930312500 4.62601765625000 
 N -2.07792147187500 1.49843130312500 4.69247565625000 
 N -2.18110347187500 5.07062930312500 4.38169265625000 
 N -4.31049047187500 0.648138303124999 3.65286765625000 
 N -4.16592747187500 3.93575330312500 3.38819565625000 
 N -4.75108747187500 1.26099030312500 7.51358065625000 
 N -4.91202547187500 5.07764030312500 7.10224065625000 
 S -5.60398747187500 0.869408303124999 6.22039565625000 
 S -5.63766447187500 4.25617130312500 5.79272965625000 
 S -2.69848747187500 0.950502303125000 3.22350265625000 
 S -2.59910147187500 4.33208630312500 2.96018665625000 
 S -3.25643847187500 1.83159130312500 7.22610665625000 
 S -3.29918647187500 5.50603730312500 6.85418765625000 
