16

 C -3.14380105000000 1.36876544687500 5.31156925937500 
 C -3.01079405000000 4.96614944687500 5.58279825937500 
 C -4.24385005000000 0.619368446874998 4.65658025937500 
 C -4.28699705000000 4.58119644687500 5.03608025937500 
 N -2.24612005000000 1.71476744687500 4.38500525937500 
 N -2.03629005000000 5.07136444687500 4.67540125937500 
 N -4.06114205000000 0.479618446874998 3.34411525937500 
 N -4.27334505000000 4.52434844687500 3.70004425937500 
 N -4.89882305000000 0.935943446874997 7.18745525937500 
 N -4.57107605000000 4.83856744687500 7.61534625937500 
 S -5.55988905000000 0.301803446874998 5.77917225937500 
 S -5.53402405000000 4.41538444687500 6.30101125937500 
 S -2.57394005000000 1.10351544687500 2.91390225937500 
 S -2.71462505000000 4.76474344687500 3.21965125937500 
 S -3.39786805000000 1.54714944687500 7.01564225937500 
 S -2.97297905000000 5.04207744687500 7.30193925937500 
