16

 C -3.26285831875000 1.50455498750000 5.30902547187500 
 C -3.31433431875000 5.33080198750000 5.50909947187500 
 C -4.42575531875000 0.817467987499999 4.75889047187500 
 C -4.47017631875000 4.69489898750000 4.87991347187500 
 N -2.27971331875000 1.85137598750000 4.46165747187500 
 N -2.41575731875000 5.78375098750000 4.65974747187500 
 N -4.38798531875000 0.656264987499998 3.42774647187500 
 N -4.38958431875000 4.53037298750000 3.57491447187500 
 N -4.90652831875000 1.09839598750000 7.28921647187500 
 N -4.95927331875000 4.90920898750000 7.42777747187500 
 S -5.68585531875000 0.448073987499999 5.95410747187500 
 S -5.74289431875000 4.42927398750000 5.98835147187500 
 S -2.89388831875000 1.35933698750000 2.97607747187500 
 S -2.89607131875000 5.29304598750000 3.16568047187500 
 S -3.33927731875000 1.63013698750000 7.10698947187500 
 S -3.37121831875000 5.39601698750000 7.21572847187500 
