16

 C -2.87307130000000 1.82177520625000 5.61414623437500 
 C -3.21366430000000 5.25248520625000 5.65027523437500 
 C -4.20647530000000 1.66006620625000 5.00466223437500 
 C -4.47168830000000 4.91924620625000 5.04699223437500 
 N -1.87380730000000 1.90331320625000 4.76426423437500 
 N -2.18224030000000 5.32996120625000 4.83075523437500 
 N -4.16679830000000 1.47114320625000 3.67811823437500 
 N -4.36909130000000 4.62431520625000 3.74393423437500 
 N -4.46498430000000 1.44027620625000 7.53492323437500 
 N -4.82518930000000 5.18010720625000 7.61655923437500 
 S -5.41699430000000 1.49583220625000 6.18524223437500 
 S -5.68976730000000 4.70316920625000 6.30227423437500 
 S -2.53222230000000 1.58160920625000 3.29858523437500 
 S -2.74501630000000 4.92998120625000 3.37364123437500 
 S -2.86740630000000 1.94663820625000 7.33559423437500 
 S -3.24816130000000 5.48133320625000 7.38846423437500 
