16

 C -3.15655213125000 1.33669440312500 5.34939220312500 
 C -3.10549413125000 4.89592740312500 5.52169620312500 
 C -4.32061713125000 0.561358403125003 4.81718620312500 
 C -4.40349613125000 4.60142040312500 4.95385320312500 
 N -2.23042313125000 1.61682840312500 4.44590320312500 
 N -2.16221613125000 4.95276640312500 4.57094720312500 
 N -4.15565813125000 0.285067403125003 3.53645720312500 
 N -4.47380813125000 4.58672840312500 3.62219420312500 
 N -4.88691213125000 1.17460940312500 7.25962020312500 
 N -4.75851913125000 4.81322040312500 7.50335720312500 
 S -5.53992713125000 0.298432403125003 5.99269920312500 
 S -5.65478113125000 4.54162940312500 6.12276720312500 
 S -2.70921713125000 0.951161403125003 3.04626620312500 
 S -2.91846413125000 4.72756340312500 3.10966120312500 
 S -3.37032513125000 1.81957840312500 6.99629220312500 
 S -3.12558313125000 5.26896940312500 7.29046920312500 
