16

 C -3.35500221875000 1.16274118437500 5.52866135000000 
 C -3.13370221875000 5.04201118437500 5.32661435000000 
 C -4.45973421875000 0.605258184374999 4.80200635000000 
 C -4.37372821875000 4.66530418437500 4.59880035000000 
 N -2.30689721875000 1.43746218437500 4.71508335000000 
 N -2.01750121875000 4.97518918437500 4.60219235000000 
 N -4.33061721875000 0.533020184374999 3.47744135000000 
 N -4.15288121875000 4.36838218437500 3.34605835000000 
 N -5.39966521875000 1.16887218437500 7.05854935000000 
 N -5.03857121875000 5.38189818437500 7.05801935000000 
 S -5.90474421875000 0.218367184374999 5.77595935000000 
 S -5.77436321875000 4.82308018437500 5.69605135000000 
 S -2.79721821875000 0.963784184374998 3.20542535000000 
 S -2.46282121875000 4.52908218437500 3.11436335000000 
 S -3.82994721875000 1.59615618437500 7.19680235000000 
 S -3.40632721875000 5.54172318437500 6.99695635000000 
