16

 C -3.35900310000000 1.18390037500000 5.50943621875000 
 C -3.16877310000000 4.96738737500000 5.06096321875000 
 C -4.55247310000000 0.781528374999997 4.83572821875000 
 C -4.38015810000000 4.38206737500000 4.45395721875000 
 N -2.33191310000000 1.50477937500000 4.73265321875000 
 N -2.16339710000000 5.20352537500000 4.23162421875000 
 N -4.41700510000000 0.740205374999997 3.50243021875000 
 N -4.22464110000000 4.11623237500000 3.16707621875000 
 N -5.16172710000000 0.981104374999997 7.30922821875000 
 N -4.99669910000000 4.88650037500000 6.91292421875000 
 S -5.92702610000000 0.501917374999997 5.90937221875000 
 S -5.73232310000000 4.26235737500000 5.55715121875000 
 S -2.88946410000000 1.19526337500000 3.17361321875000 
 S -2.74222010000000 4.69356437500000 2.75014621875000 
 S -3.54548310000000 1.47395937500000 7.16975121875000 
 S -3.35461310000000 5.22329637500000 6.77412321875000 
