16

 C -3.24052221250000 1.19866391875000 5.54142653125000 
 C -2.97794821250000 5.02091891875000 5.45741753125000 
 C -4.54184821250000 0.816130918750001 5.01508153125000 
 C -4.21028221250000 4.91134691875000 4.72006153125000 
 N -2.35256721250000 1.31135291875000 4.57631153125000 
 N -1.93158321250000 5.26453791875000 4.66532753125000 
 N -4.57313021250000 0.608445918750002 3.71588953125000 
 N -4.04911221250000 4.82676991875000 3.38640153125000 
 N -4.83336121250000 0.863298918750001 7.56395953125000 
 N -4.84009021250000 4.68975291875000 7.26064453125000 
 S -5.77396221250000 0.820303918750002 6.19263153125000 
 S -5.54833121250000 4.63529691875000 5.79939453125000 
 S -3.06093221250000 0.999310918750001 3.10912253125000 
 S -2.43998721250000 5.03862491875000 3.09343353125000 
 S -3.25165121250000 1.41480391875000 7.30028053125000 
 S -3.22416621250000 5.13083091875000 7.19307153125000 
