16

 C -2.88088438750000 1.28347056875000 5.81662616250000 
 C -3.13118038750000 4.72010656875000 5.57509916250000 
 C -4.08209438750000 1.11645256875000 5.03176616250000 
 C -4.26293038750000 4.31526956875000 4.74237516250000 
 N -1.83126838750000 1.42311356875000 4.99077216250000 
 N -1.99160838750000 4.74157256875000 4.90327816250000 
 N -4.03664138750000 1.09359256875000 3.70911116250000 
 N -3.97739238750000 4.11569056875000 3.46818116250000 
 N -4.90521538750000 1.60828456875000 7.46145916250000 
 N -5.04905838750000 4.93862556875000 7.18981316250000 
 S -5.50936138750000 1.17730556875000 5.96774516250000 
 S -5.74445238750000 4.33368656875000 5.76105216250000 
 S -2.35564638750000 1.17926056875000 3.39271516250000 
 S -2.28775338750000 4.36686156875000 3.34321216250000 
 S -3.22759238750000 1.55332256875000 7.51341216250000 
 S -3.44497938750000 5.02899756875000 7.18802716250000 
