16

 C -3.03286611250000 1.34627879062500 5.73412127500000 
 C -3.19289311250000 5.09220779062500 5.41919627500000 
 C -4.15449611250000 0.634893790625001 5.13151127500000 
 C -4.38568111250000 4.49145079062500 4.84990227500000 
 N -1.99462911250000 1.44102279062500 4.91124127500000 
 N -2.14876411250000 5.17364079062500 4.58286727500000 
 N -3.94759411250000 0.258221790625001 3.88298327500000 
 N -4.27586811250000 4.24076579062500 3.53106027500000 
 N -4.77533211250000 0.821039790625001 7.58131827500000 
 N -4.94019411250000 4.88648379062500 7.36186327500000 
 S -5.48739211250000 0.322160790625001 6.17338627500000 
 S -5.67332611250000 4.26924479062500 5.97289127500000 
 S -2.42376311250000 0.790529790625000 3.41755227500000 
 S -2.68178111250000 4.56994979062500 3.12966627500000 
 S -3.24371511250000 1.51460079062500 7.47473227500000 
 S -3.24155711250000 5.15624279062500 7.23982227500000 
