16

 C -3.14921530000000 1.32322259687500 5.30722531562500 
 C -2.91034530000000 4.94184159687500 5.63822631562500 
 C -4.32835430000000 0.732086596874999 4.58401431562500 
 C -4.18245030000000 4.52926559687500 5.07503931562500 
 N -2.12336230000000 1.65451859687500 4.52014631562500 
 N -2.01020430000000 5.23799359687500 4.72213231562500 
 N -4.07642630000000 0.545978596874999 3.28364331562500 
 N -4.17264930000000 4.28060259687500 3.76436831562500 
 N -4.84607030000000 0.771473596875000 7.09269431562500 
 N -4.55335330000000 4.67807859687500 7.65281731562500 
 S -5.60913530000000 0.304415596874999 5.67634031562500 
 S -5.42913830000000 4.48196059687500 6.24517031562500 
 S -2.60583530000000 1.25033959687500 2.99849431562500 
 S -2.65841230000000 4.78302259687500 3.25049631562500 
 S -3.32835030000000 1.45181059687500 6.95238331562500 
 S -2.91719930000000 5.09628559687500 7.40857731562500 
