16

 C -3.31145815937500 1.29624472187500 5.25421480625000 
 C -3.19242915937500 5.35801272187500 5.58593380625000 
 C -4.51937315937500 0.714334721874997 4.75715680625000 
 C -4.33591515937500 5.12425772187500 4.78862880625000 
 N -2.29036915937500 1.45685072187500 4.38532080625000 
 N -2.10879015937500 5.52553072187500 4.83495080625000 
 N -4.51485615937500 0.598784721874997 3.44923180625000 
 N -4.20760915937500 5.17860772187500 3.46204480625000 
 N -4.99293015937500 1.04758572187500 7.29364680625000 
 N -5.11634415937500 5.01299172187500 7.23241480625000 
 S -5.83697015937500 0.468220721874998 5.92094280625000 
 S -5.75479815937500 5.02921772187500 5.70915180625000 
 S -2.98453915937500 0.895489721874998 2.90736580625000 
 S -2.60394615937500 5.41593372187500 3.22125580625000 
 S -3.44849915937500 1.58654372187500 6.97486380625000 
 S -3.49007115937500 5.16338472187500 7.25728780625000 
