16

 C -3.22739878437500 1.48784851250000 5.58248382500000 
 C -3.38814878437500 5.33273751250000 5.63919782500000 
 C -4.48432678437500 1.06177151250000 5.04661882500000 
 C -4.51783078437500 4.63791051250000 5.02148982500000 
 N -2.26886278437500 1.79483651250000 4.70574682500000 
 N -2.50150178437500 5.72734851250000 4.76588482500000 
 N -4.44104178437500 0.983718512499997 3.71698682500000 
 N -4.41359078437500 4.52041251250000 3.72544282500000 
 N -4.96793478437500 1.10318251250000 7.59628282500000 
 N -5.16031378437500 4.74552251250000 7.49916882500000 
 S -5.78829678437500 0.795873512499997 6.19430682500000 
 S -5.88253978437500 4.29058651250000 6.07637282500000 
 S -2.99561278437500 1.48579551250000 3.16330382500000 
 S -2.97673978437500 5.16205451250000 3.29820582500000 
 S -3.34638578437500 1.52653651250000 7.36889582500000 
 S -3.65952778437500 5.40730251250000 7.34129282500000 
