16

 C -3.02364775937500 1.42231705937500 5.54418966562500 
 C -3.01746475937500 4.88471705937500 5.24296566562500 
 C -4.21720275937500 0.996109059374998 4.89433666562500 
 C -4.33795075937500 4.84319805937500 4.61811066562500 
 N -1.94299675937500 1.47686105937500 4.74242366562500 
 N -1.97859375937500 4.74666405937500 4.45695866562500 
 N -4.02863875937500 0.685025059374998 3.60086566562500 
 N -4.25128975937500 4.60632705937500 3.31931966562500 
 N -4.85231375937500 1.31076005937500 7.34380366562500 
 N -4.68584275937500 5.24932805937500 7.14535466562500 
 S -5.62949175937500 0.919528059374998 5.93857066562500 
 S -5.57715575937500 4.85092405937500 5.78319266562500 
 S -2.41346375937500 1.04564705937500 3.24688966562500 
 S -2.66414475937500 4.59462005937500 2.93519166562500 
 S -3.24899075937500 1.82938205937500 7.14614866562500 
 S -3.02412975937500 5.32167305937500 6.91149466562500 
