16

 C -3.17321145625000 1.65059545000000 5.38964360625000 
 C -3.02456045625000 4.96481345000000 5.46728560625000 
 C -4.34385345625000 1.17361345000000 4.67260060625000 
 C -4.30837145625000 4.66634345000000 4.80813260625000 
 N -2.15063345625000 1.93987645000000 4.56743060625000 
 N -1.97062645625000 5.10309745000000 4.69333760625000 
 N -4.22845345625000 1.21709045000000 3.34777760625000 
 N -4.14539045625000 4.67717245000000 3.49893160625000 
 N -5.01120345625000 1.05716145000000 7.22253460625000 
 N -4.85050545625000 4.96337745000000 7.34758760625000 
 S -5.71449445625000 0.922336450000000 5.76378060625000 
 S -5.72743145625000 4.66549445000000 5.89792160625000 
 S -2.64150345625000 1.61063345000000 3.05140560625000 
 S -2.57053245625000 4.97952445000000 3.14026960625000 
 S -3.42374445625000 1.64758945000000 7.08404060625000 
 S -3.17496745625000 4.98132445000000 7.19655960625000 
