16

 C -2.86241280000000 1.91906608437500 5.39495912500000 
 C -3.07480680000000 5.14339208437500 5.48921912500000 
 C -4.10160180000000 1.49194208437500 4.80168912500000 
 C -4.29964480000000 4.91047608437500 4.77045112500000 
 N -1.87154280000000 2.05767208437500 4.53706612500000 
 N -2.00293680000000 5.18321808437500 4.71299512500000 
 N -4.00245480000000 1.18136008437500 3.50962612500000 
 N -4.10831580000000 4.83976208437500 3.44138212500000 
 N -4.59078080000000 1.77108508437500 7.28188812500000 
 N -4.94455980000000 4.88075308437500 7.21783512500000 
 S -5.41867180000000 1.41951108437500 5.87219412500000 
 S -5.65014180000000 4.56958708437500 5.77144312500000 
 S -2.42605580000000 1.63139708437500 3.07396512500000 
 S -2.48139480000000 4.91023108437500 3.14220112500000 
 S -3.00666280000000 2.27830508437500 7.10201912500000 
 S -3.31605080000000 5.31526708437500 7.22266512500000 
