16

 C -2.93723298437500 1.62731536875000 5.74700025625000 
 C -3.14969898437500 5.25925936875000 5.65774825625000 
 C -4.24490198437500 1.44479436875000 5.12493025625000 
 C -4.45521698437500 4.94726936875000 5.06060125625000 
 N -1.91206798437500 2.01477136875000 4.93979425625000 
 N -2.17298798437500 5.51919236875000 4.78575125625000 
 N -4.16369498437500 1.45248036875000 3.76489825625000 
 N -4.37147498437500 4.75323636875000 3.73998825625000 
 N -4.68972498437500 1.53826036875000 7.67780825625000 
 N -4.78353298437500 5.21019936875000 7.61036525625000 
 S -5.58648298437500 1.50568736875000 6.27939225625000 
 S -5.70547498437500 4.84782436875000 6.29193025625000 
 S -2.56380898437500 1.82184836875000 3.39912725625000 
 S -2.73159898437500 5.09237936875000 3.31547725625000 
 S -3.07564098437500 1.75796736875000 7.49700125625000 
 S -3.15600698437500 5.47642236875000 7.39965325625000 
