16

 C -3.18688190625000 1.11501632500000 5.51092679375000 
 C -3.23817790625000 4.67112932500000 5.59618679375000 
 C -4.30272790625000 0.684314324999996 4.73959379375000 
 C -4.53082590625000 4.38477532500000 5.05012779375000 
 N -2.08589590625000 1.45335032500000 4.82681479375000 
 N -2.24239090625000 4.76210932500000 4.73557579375000 
 N -4.14601990625000 0.818549324999996 3.42005379375000 
 N -4.50585990625000 4.45800932500000 3.71947179375000 
 N -5.03899590625000 0.280441324999996 7.15609479375000 
 N -4.97092990625000 4.66977232499999 7.57082479375000 
 S -5.67195890625000 7.465632499999586E-002 5.64978079375000 
 S -5.83853790625000 4.56010332499999 6.17371879375000 
 S -2.57504590625000 1.33710832500000 3.19455379375000 
 S -2.95157490625000 4.67649332500000 3.22270779375000 
 S -3.53977590625000 0.829998324999996 7.21523979375000 
 S -3.31540490625000 4.95665932500000 7.31068979375000 
