16

 C -3.42177767812500 1.24323132499999 5.27701394687500 
 C -3.17333967812500 5.12602932499999 5.35127794687500 
 C -4.60843767812500 0.705330324999993 4.65079594687500 
 C -4.41207967812500 4.71729632499999 4.79842894687500 
 N -2.37921967812500 1.45957232499999 4.47183594687500 
 N -2.19090767812500 5.15450032499999 4.41405394687500 
 N -4.40777767812500 0.425590324999994 3.36400994687500 
 N -4.41180167812500 4.36483232499999 3.53962894687500 
 N -5.01413567812500 0.889096324999993 7.21898894687500 
 N -4.89103267812500 4.76446832499999 7.25796294687500 
 S -5.96206167812500 0.749948324999993 5.78818994687500 
 S -5.72703067812500 4.69029732499999 5.88563494687500 
 S -2.77444267812500 0.780284324999993 3.00716494687500 
 S -2.90352967812500 4.58622932499999 2.94324194687500 
 S -3.41288567812500 1.44667532499999 6.95084294687500 
 S -3.29108767812500 5.42313432499999 7.13731094687500 
