16

 C -3.12041140312500 1.17474290312500 5.75123049375000 
 C -2.80343640312500 4.65317790312500 5.49124949375000 
 C -4.45447540312500 0.909610903124999 5.27117149375000 
 C -4.06973740312500 4.49094090312500 4.84952649375000 
 N -2.15581140312500 0.925366903124998 4.85843449375000 
 N -1.82398340312500 4.79885290312500 4.58222649375000 
 N -4.49142540312500 0.584267903124998 3.98327549375000 
 N -4.07192440312500 4.46605490312500 3.50916449375000 
 N -4.53364840312500 1.74471390312500 7.80742049375000 
 N -4.62051240312500 4.62041390312500 7.29278749375000 
 S -5.64853440312500 1.36669390312500 6.54379249375000 
 S -5.45571740312500 4.58010690312500 5.87661849375000 
 S -2.92510140312500 0.616931903124999 3.45952349375000 
 S -2.52758540312500 4.76751590312500 3.02127049375000 
 S -2.92009340312500 1.74867390312500 7.27872149375000 
 S -3.05170740312500 4.85817490312500 7.24174349375000 
