16

 C -3.03920686875000 1.43219949062500 5.47022718750000 
 C -2.96826186875000 5.17628749062500 5.47849518750000 
 C -4.15632086875000 0.841096490625003 4.78907718750000 
 C -4.25473086874999 4.86927549062500 4.86865618750000 
 N -1.95172186875000 1.62034549062500 4.66884918750000 
 N -1.93006586875000 5.27977549062500 4.62580418750000 
 N -3.91193686874999 0.559755490625002 3.52090518750000 
 N -4.13738786874999 4.66799949062500 3.55167018750000 
 N -4.98507886875000 1.07374249062500 7.10164718750000 
 N -4.66862986875000 5.08393249062500 7.43382218750000 
 S -5.61438386874999 0.575552490625003 5.68835818750000 
 S -5.60823486874999 5.01312549062500 6.04437718750000 
 S -2.45123986875000 1.12032649062500 3.11226718750000 
 S -2.58045386874999 4.93124949062500 3.11641918750000 
 S -3.35140986874999 1.32948149062500 7.22063718750000 
 S -2.97530686875000 5.40030049062500 7.14988018750000 
