16

 C -3.01225237812500 1.34001768437500 5.57773071562500 
 C -3.11723537812500 5.21961768437500 5.18888871562500 
 C -4.16845137812500 0.960639684374999 4.81710871562500 
 C -4.33384437812500 4.75184368437500 4.62630471562500 
 N -1.92034337812500 1.31155168437500 4.83748671562500 
 N -2.12641837812500 5.47886568437500 4.34307371562500 
 N -3.94306237812500 0.654805684374999 3.53546471562500 
 N -4.22318637812500 4.56213968437500 3.28409771562500 
 N -4.86587437812500 1.33884368437500 7.23733871562500 
 N -4.78825837812500 4.85643668437500 7.16674771562500 
 S -5.59970737812500 0.888895684374999 5.81317771562500 
 S -5.67959537812500 4.75516168437500 5.77390171562500 
 S -2.33459837812500 0.989381684374999 3.28782771562500 
 S -2.72569337812500 5.00647468437500 2.84833371562500 
 S -3.22892637812500 1.58443468437500 7.22057971562500 
 S -3.17303937812500 5.40058368437500 6.89292571562500 
