16

 C -3.24524681250000 1.09393305625000 5.23417369062500 
 C -3.15441581250000 5.04329405625000 5.58435269062500 
 C -4.52726981250000 0.837510056250001 4.65075169062500 
 C -4.43702781250000 4.62841405625000 5.06552169062500 
 N -2.24318781250000 1.12089805625000 4.40527169062500 
 N -2.26361881250000 5.21964205625000 4.65846769062500 
 N -4.50364481250000 0.690074056250000 3.31661569062500 
 N -4.49970481250000 4.58268905625000 3.75331769062500 
 N -4.80287381250000 1.59100505625000 7.16194269062500 
 N -4.94559081250000 4.89043405625000 7.49539969062500 
 S -5.70055781250000 0.886816056250001 5.93522569062500 
 S -5.71011581250000 4.44304405625000 6.15762369062500 
 S -2.85331981250000 0.866502056250002 2.88721169062500 
 S -3.02519981250000 4.97680305625000 3.11838069062500 
 S -3.18943881250000 1.68857905625000 6.78030269062500 
 S -3.25791481250000 5.24474805625000 7.40699369062500 
