16

 C -3.39442608750000 1.44113547187500 5.49405007187500 
 C -3.30804008750000 4.99891347187500 5.17720007187500 
 C -4.57009008750000 0.954085471875000 4.91786907187500 
 C -4.44123308750000 4.37404247187500 4.54750707187500 
 N -2.37214508750000 1.61237547187500 4.65123607187500 
 N -2.34472408750000 5.33118147187500 4.33836107187500 
 N -4.51726708750000 0.719549471875000 3.60768707187500 
 N -4.24483208750000 4.03135147187500 3.28954507187500 
 N -5.05600308750000 1.39644847187500 7.52502907187500 
 N -5.03839808750000 4.81096047187500 7.01375007187500 
 S -5.86221008750000 0.849523471875001 6.13836907187500 
 S -5.67418008750000 3.96174947187500 5.73464207187500 
 S -2.88051208750000 1.05505747187500 3.17102907187500 
 S -2.77869408750000 4.68891647187500 2.84405807187500 
 S -3.38312608750000 1.70473747187500 7.22585007187500 
 S -3.55492808750000 5.48850947187500 6.81590407187500 
