16

 C -3.16584895312500 1.40540054687500 5.53615047187501 
 C -3.42543895312500 5.04799554687500 5.50813147187501 
 C -4.35601595312500 0.989195546874999 4.85733047187501 
 C -4.66154595312500 4.59627154687500 4.93904847187501 
 N -2.14349695312500 1.67730754687500 4.75414447187500 
 N -2.46645995312500 5.35962954687500 4.63712947187501 
 N -4.29303395312500 0.935566546874999 3.54820747187501 
 N -4.53736695312500 4.30969054687500 3.64656847187501 
 N -5.05417195312500 1.26177754687500 7.30754847187501 
 N -5.15648995312500 4.94651954687500 7.39476747187501 
 S -5.73988295312500 0.713817546874999 5.89168647187501 
 S -5.90565595312500 4.19131154687500 6.07702747187501 
 S -2.76062095312500 1.40202654687500 3.22549247187501 
 S -3.07094695312500 4.89196554687500 3.13868147187501 
 S -3.41575895312500 1.57881254687500 7.25528147187500 
 S -3.51874395312500 5.25250454687500 7.22925447187501 
