16

 C -3.29431767812500 1.22969969687500 5.53802735000000 
 C -3.38478367812500 4.67891469687500 5.33080235000000 
 C -4.46770067812500 0.710674696875000 4.86206135000000 
 C -4.63189767812500 4.50581269687500 4.63989935000000 
 N -2.22441667812500 1.55717469687500 4.79945335000000 
 N -2.42617067812500 5.01751269687500 4.49839635000000 
 N -4.25617567812500 0.566418696875000 3.53981235000000 
 N -4.57128267812500 4.49961369687500 3.30639735000000 
 N -5.07918267812500 0.965658696875000 7.36143935000000 
 N -5.15562867812500 4.67855769687500 7.18087835000000 
 S -5.69129767812500 0.174707696875000 5.94829635000000 
 S -5.98406367812500 4.49311269687500 5.76788735000000 
 S -2.77312567812500 1.19757769687500 3.30203435000000 
 S -3.00163367812500 4.96863169687500 2.96306235000000 
 S -3.45994467812500 1.37474969687500 7.19340935000000 
 S -3.50105867812500 4.92524469687500 7.01433235000000 
