16

 C -3.30381776562500 1.23914785937500 5.53184841875000 
 C -3.28046076562500 5.05085185937500 5.17878041875000 
 C -4.57230776562500 1.08107685937500 4.81892241875000 
 C -4.46191576562500 4.46410285937500 4.59606641875000 
 N -2.22612276562500 1.24847985937500 4.73837641875000 
 N -2.23767976562500 5.19246785937500 4.33306941875000 
 N -4.46577276562500 0.970684859374998 3.49985441875000 
 N -4.32614476562500 4.09550585937500 3.32373641875000 
 N -5.18428876562500 1.18045785937500 7.35067441875000 
 N -4.98392876562500 4.89386885937500 7.08580541875000 
 S -5.88937976562500 0.838619859374998 5.91073841875000 
 S -5.83972176562500 4.49259685937500 5.72053941875000 
 S -2.85487476562500 1.06406185937500 3.18232141875000 
 S -2.73408276562500 4.51252585937500 2.91795441875000 
 S -3.54178876562500 1.43880385937500 7.29835641875000 
 S -3.37721776562500 5.37588385937500 6.91767241875000 
