16

 C -3.05795210625001 1.23439434687499 5.72223004687500 
 C -2.89297310625001 4.74099234687499 5.44105104687500 
 C -4.44461410625001 1.05971734687499 5.31251804687500 
 C -4.18545510625001 4.61054334687499 4.81792404687500 
 N -2.13423710625001 0.969711346874993 4.83176904687500 
 N -1.86262010625001 4.81390734687499 4.64240904687500 
 N -4.58038310625001 0.593488346874993 4.09535304687500 
 N -4.11934610625001 4.59771934687499 3.47237604687500 
 N -4.62384010625001 1.73636734687499 7.69033204687500 
 N -4.67566010625001 4.55677434687499 7.40397704687500 
 S -5.63370510625001 1.26783534687499 6.51867504687500 
 S -5.47349810625001 4.48724634687499 5.93722804687500 
 S -3.01043810625001 0.617788346874994 3.43838004687500 
 S -2.46105710625001 4.77389234687499 3.11562104687500 
 S -3.01575410625001 1.80425034687499 7.40028904687500 
 S -2.98834310625001 4.88964134687499 7.18356804687500 
