16

 C -3.40391482187500 1.64154761562500 5.42244622187500 
 C -3.14124582187500 5.72988361562500 5.59873222187500 
 C -4.53932782187500 0.954308615624998 4.78015522187500 
 C -4.17747382187500 4.90378161562500 4.98480922187500 
 N -2.32647282187500 1.67724461562500 4.70217722187500 
 N -2.14938082187500 6.07670161562500 4.77290722187500 
 N -4.25756582187500 0.484783615624998 3.58318622187500 
 N -4.03663182187500 4.77237161562500 3.68469722187500 
 N -5.15412382187500 1.16416261562500 7.29856822187500 
 N -4.80609382187500 5.12172961562500 7.44962122187500 
 S -5.84485082187500 0.783756615624998 5.84063622187500 
 S -5.50881182187500 4.56972461562500 6.04705422187500 
 S -2.69528782187500 1.01520061562500 3.27888622187500 
 S -2.59802082187500 5.52498661562500 3.25754522187500 
 S -3.55622782187500 1.58045161562500 7.16722222187500 
 S -3.29872782187500 5.69590361562500 7.38134022187500 
