16

 C -3.28164291875000 1.34500012500001 5.35159027812500 
 C -3.19025991875000 5.43066112500001 5.63103527812500 
 C -4.41046591875000 0.638445125000006 4.80759027812500 
 C -4.40011491875000 4.79143312500001 5.02653527812500 
 N -2.17846191875000 1.30603312500001 4.62763827812500 
 N -2.16659591875000 5.52587812500001 4.83726627812500 
 N -4.20826391875000 0.114342125000006 3.60314527812500 
 N -4.22980291875000 4.46664412500001 3.77136527812500 
 N -5.04392691875000 1.60421212500001 7.10845127812500 
 N -4.99564591875000 5.18342212500001 7.45793327812500 
 S -5.72565691875000 0.548665125000006 6.01815427812500 
 S -5.72408991875000 4.47902112500001 6.13021127812500 
 S -2.59416991875000 0.550798125000006 3.19659027812500 
 S -2.68563291875000 4.81643112500001 3.38008327812500 
 S -3.48241491875000 2.02393212500001 6.88307427812500 
 S -3.40189891875000 5.72798012500001 7.38682227812500 
