16

 C -3.05492562500000 0.945675362500001 5.75889593125000 
 C -3.26187062500000 5.17997936250000 5.56348493125000 
 C -4.28360962500000 0.598673362500000 5.08575793125000 
 C -4.32975962500000 4.42739436250000 4.98954393125000 
 N -2.00202662500000 1.14665336250000 4.96942493125000 
 N -2.22975162500000 5.52425936250000 4.77529293125000 
 N -4.21747062500000 0.615903362500001 3.75074293125000 
 N -4.24545762500000 4.42264036250000 3.65001693125000 
 N -4.94823562500000 0.993933362500001 7.56101893125000 
 N -5.09028162500000 4.79166036250000 7.39480693125000 
 S -5.66947262500000 0.578527362500001 6.13193293125000 
 S -5.57724862500000 3.88731136250000 6.04577393125000 
 S -2.64317762500000 0.924996362500001 3.43409593125000 
 S -2.78876062500000 5.08901536250000 3.25219393125000 
 S -3.29697562500000 1.19680336250000 7.48052093125000 
 S -3.49508462500000 5.25393236250000 7.29157893125000 
