16

 C -3.03924556875000 1.29170853437500 5.26394766875000 
 C -2.90052256875000 5.09510153437500 5.59853866875000 
 C -4.17869456875000 0.722556534374996 4.60310166875000 
 C -4.16112956875000 4.55593553437500 5.14395266875000 
 N -2.08439056875000 1.70554653437500 4.45903466875000 
 N -2.01684256875000 5.30955653437500 4.59503966875000 
 N -4.14652256875000 0.801096534374996 3.28192066875000 
 N -4.20597356875000 4.33798853437500 3.82820466875000 
 N -4.68913856875000 0.628771534374996 7.13125166875000 
 N -4.50038356875000 5.07566053437500 7.65116166875000 
 S -5.45532256875000 0.215768534374996 5.68165866875000 
 S -5.38591356875000 4.51284153437500 6.34142266875000 
 S -2.66037556875000 1.53022053437500 2.95072566875000 
 S -2.71293956875000 4.81384553437500 3.19072266875000 
 S -3.11580756875000 1.23717553437500 7.01145466875000 
 S -2.86279856875000 5.38499753437500 7.35211466875000 
