16

 C -3.22909677812500 1.40375930000000 5.67711217500000 
 C -3.33030577812500 5.14320930000000 5.40693617500000 
 C -4.34616877812500 0.858308299999996 4.99729517500000 
 C -4.56090977812500 4.69464330000000 4.78344617500000 
 N -2.20999077812500 1.67899130000000 4.90081217500000 
 N -2.29036077812500 5.37652930000000 4.58466117500000 
 N -4.21109077812500 0.763723299999996 3.69330317500000 
 N -4.46823977812500 4.76189130000000 3.44652417500000 
 N -5.09967977812500 1.16812730000000 7.35633417500000 
 N -5.07091677812500 4.89213430000000 7.28231117500000 
 S -5.73951477812500 0.583342299999996 5.92438917500000 
 S -5.89361977812500 4.39976930000000 5.89225317500000 
 S -2.64193377812500 1.16501530000000 3.41634717500000 
 S -2.87343077812500 5.16754630000000 3.07264417500000 
 S -3.52162777812500 1.59695430000000 7.37108717500000 
 S -3.49176177812500 5.27754630000000 7.10552017500000 
