16

 C -3.12273503437500 1.41917043750000 5.56689708750000 
 C -3.19634003437500 5.04549743750000 5.17919408750000 
 C -4.40031403437500 0.901138437500002 4.99810608750000 
 C -4.31152103437500 4.26966543750000 4.66708508750000 
 N -2.15948203437500 1.46452943750000 4.66943808750000 
 N -2.17596903437500 5.13269443750000 4.32746108750000 
 N -4.34439003437500 0.744056437500002 3.67773708750000 
 N -4.18477203437500 3.88957743750000 3.39184408750000 
 N -4.79020803437500 1.29145343750000 7.47715108750000 
 N -4.89030403437500 5.01148143750000 7.02531008750000 
 S -5.68835803437500 0.869608437500002 6.11710008750000 
 S -5.65439003437500 4.20716443750000 5.76448608750000 
 S -2.79515103437500 0.996344437500002 3.22264408750000 
 S -2.65810103437500 4.39994243750000 2.95534508750000 
 S -3.23050703437500 1.85743543750000 7.24480908750000 
 S -3.35382703437500 5.54517343750000 6.80555908750000 
