16

 C -3.36581237500000 1.42725965625000 5.50948505625000 
 C -3.34856437500000 5.06318065625000 5.18530405625000 
 C -4.60873637500000 0.957406656250000 4.90850005625000 
 C -4.47681637500000 4.43725465625000 4.56014505625000 
 N -2.37384937500000 1.64211065625000 4.66644805625000 
 N -2.37731137500000 5.36622365625000 4.34249805625000 
 N -4.52093337500000 0.673843656250000 3.59724705625000 
 N -4.27842837500000 4.12855365625000 3.28054705625000 
 N -5.03044637500000 1.32957365625000 7.50826805625000 
 N -5.05383337500000 4.80106465625000 7.03641505625000 
 S -5.90528137500000 0.815827656250000 6.11177105625000 
 S -5.70389137500000 3.94257665625000 5.71033605625000 
 S -2.90493637500000 1.05044765625000 3.20543605625000 
 S -2.78440937500000 4.69284365625000 2.86428005625000 
 S -3.36255037500000 1.69838465625000 7.22195105625000 
 S -3.54801937500000 5.42709165625000 6.80353805625000 
