16

 C -3.40968006562500 1.27937711875000 5.92567618437500 
 C -3.14749406562500 5.04792311875000 5.19936218437500 
 C -4.58303906562500 0.837913118749999 5.15676718437500 
 C -4.37663606562500 4.74545011875000 4.46583518437500 
 N -2.34630506562500 1.42223111875000 5.20352618437500 
 N -2.09307606562500 5.11174311875000 4.41045818437500 
 N -4.35220806562500 0.825729118749998 3.87006818437500 
 N -4.21601206562500 4.45182011875000 3.17818518437500 
 N -5.34018706562500 1.00152911875000 7.63928118437500 
 N -5.05326506562500 4.92068311875000 6.98911018437500 
 S -6.00725906562500 0.570519118749998 6.17666418437500 
 S -5.73278606562500 4.52745511875000 5.55195318437500 
 S -2.73145006562500 1.22043911875000 3.60276818437500 
 S -2.62124006562500 4.75336511875000 2.86010318437500 
 S -3.72047806562500 1.29062711875000 7.58254818437500 
 S -3.38384406562500 5.28007111875000 6.95081018437500 
