16

 C -2.86174705000000 1.71066435000000 5.27194130937500 
 C -3.35838505000000 5.11778135000000 5.58727230937500 
 C -4.06043405000000 1.08365235000000 4.77328730937500 
 C -4.49304405000000 4.53336635000000 4.90059530937500 
 N -1.90539905000000 1.96079335000000 4.38262130937500 
 N -2.27888405000000 5.27351535000000 4.79964630937500 
 N -3.96710105000000 0.840454350000001 3.45590330937500 
 N -4.37232805000000 4.53508735000000 3.57661930937500 
 N -4.28497105000000 1.07042635000000 7.34164130937500 
 N -5.03749805000000 4.50018635000000 7.44019630937500 
 S -5.19090905000000 0.578945350000001 6.04152330937500 
 S -5.71251305000000 4.01586935000000 5.99492430937500 
 S -2.45999505000000 1.35372135000000 2.92680330937500 
 S -2.84317305000000 5.06232435000000 3.22221330937500 
 S -2.82040705000000 1.70905335000000 6.98117430937500 
 S -3.45518805000000 4.91829235000000 7.36226130937500 
