16

 C -3.24688194375000 1.31045571250000 5.51323445625000 
 C -3.22202294375000 5.13434571250000 5.35144745625000 
 C -4.53012394375000 1.15279271250000 4.84066345625000 
 C -4.48436194375000 4.69197271250000 4.76914745625000 
 N -2.11304494375000 1.21813471250000 4.77547245625000 
 N -2.19802494375000 4.96696171250000 4.52332245625000 
 N -4.38988794375000 0.931494712500002 3.52777645625000 
 N -4.43560294375000 4.30572771250000 3.47631245625000 
 N -5.05950994375000 1.30317871250000 7.33181645625000 
 N -5.00884994375000 4.97103771250000 7.21899045625000 
 S -5.91281394375000 1.22050071250000 5.92197845625000 
 S -5.76996394375000 4.48205471250000 5.85834645625000 
 S -2.74327094375000 0.950811712500002 3.28440545625000 
 S -2.81067694375000 4.44368371250000 3.12352245625000 
 S -3.39265994375000 1.39329971250000 7.24945545625000 
 S -3.47101294375000 5.53766871250000 7.03406045625000 
