16

 C -3.41370059062500 1.21378700312500 5.53652744687500 
 C -3.09863559062500 5.07783700312500 5.37134044687500 
 C -4.50816759062500 0.594601003125004 4.80658044687500 
 C -4.29115759062500 4.74564500312500 4.66603244687500 
 N -2.32302659062500 1.44337400312500 4.80082644687500 
 N -1.95501859062500 5.00020800312500 4.65923144687500 
 N -4.30527759062500 0.487667003125003 3.48597244687500 
 N -4.13001259062500 4.38509400312500 3.36736044687500 
 N -5.38219259062500 1.13659600312500 7.04940844687500 
 N -5.12279159062500 5.44113500312500 7.02202444687500 
 S -5.90253059062500 0.201885003125004 5.82731044687500 
 S -5.72106059062500 4.82077200312500 5.64420244687500 
 S -2.75966159062500 1.00795900312500 3.23254144687500 
 S -2.49238859062500 4.50967700312500 3.11654844687500 
 S -3.85026159062500 1.60995200312500 7.14561344687500 
 S -3.41188259062500 5.52161300312500 7.00175644687500 
