16

 C -3.17628335937500 1.70579674687500 5.39555346875000 
 C -3.06316035937500 5.01896074687500 5.57729646875000 
 C -4.38989235937500 1.29940274687500 4.79141346875000 
 C -4.24483935937500 4.52762974687500 4.88665746875000 
 N -2.12812735937500 1.85598974687500 4.55270046875000 
 N -2.05435835937500 5.15379374687500 4.75657146875000 
 N -4.33507635937500 1.27911674687500 3.47612946875000 
 N -4.17471335937500 4.39880474687500 3.57529946875000 
 N -4.98081435937500 1.16149274687500 7.24955246875000 
 N -4.89122235937500 4.68188174687500 7.48625046875000 
 S -5.74963635937500 0.925174746874999 5.80837846875000 
 S -5.59302435937500 4.49731074687500 5.97327346875000 
 S -2.75312535937500 1.59646374687500 3.06802346875000 
 S -2.60146235937500 4.74928974687500 3.22930046875000 
 S -3.35522235937500 1.69859574687500 7.14459846875000 
 S -3.34242535937500 5.30197274687500 7.32751446875000 
