16

 C -3.27309775000000 1.37716399062500 5.48541731562500 
 C -3.03557575000000 5.30130299062500 5.73147231562500 
 C -4.38392275000000 0.937890990624998 4.75390231562500 
 C -4.29660475000000 5.12490599062500 5.04150331562500 
 N -2.22522875000000 1.65648099062500 4.72911731562500 
 N -1.98055575000000 5.46808299062500 4.94096831562500 
 N -4.22146075000000 0.870149990624998 3.43119231562500 
 N -4.15376775000000 4.91607099062500 3.73611631562500 
 N -5.08699175000000 1.01114399062500 7.22304431562500 
 N -5.02939275000000 5.15545199062500 7.56297731562500 
 S -5.72129875000000 0.446812990624998 5.74950431562500 
 S -5.75785075000000 5.05186599062500 6.05576831562500 
 S -2.68448575000000 1.45742699062500 3.21365731562500 
 S -2.56294375000000 5.22007699062500 3.39085331562500 
 S -3.53478175000000 1.48478099062500 7.19408031562500 
 S -3.36151275000000 5.57829999062500 7.42598431562500 
