16

 C -3.05317566562500 1.40394194375000 5.42552948125000 
 C -2.94035566562500 5.20145694375001 5.69261848125000 
 C -4.28693566562500 1.03287694375001 4.72779848125000 
 C -4.15349766562500 4.76936494375000 5.05007348125000 
 N -1.95170966562500 1.35946894375000 4.66870448125000 
 N -1.90598566562500 5.33504194375001 4.80861048125000 
 N -4.03295366562500 0.592248943750006 3.47484848125000 
 N -4.13478066562500 4.55196794375000 3.75074048125000 
 N -4.81755266562500 1.33231394375001 7.33537448125000 
 N -4.83238966562500 4.94326594375001 7.46129148125000 
 S -5.71412366562500 1.10023194375001 5.93167248125000 
 S -5.62057866562500 4.79933094375000 6.00548648125000 
 S -2.42567766562500 0.817388943750005 3.21393748125000 
 S -2.63897566562500 4.93065694375001 3.31184048125000 
 S -3.10667366562500 1.62899894375001 7.09494248125000 
 S -3.27312966562500 5.41849694375000 7.49264948125000 
