16

 C -3.33273302187500 1.30090002187500 5.53664839375000 
 C -3.37565902187500 4.77438902187500 5.25034839375000 
 C -4.45390802187500 0.688578021875001 4.90918339375000 
 C -4.63937502187500 4.43824702187500 4.65262739375000 
 N -2.30036602187500 1.54917502187500 4.76194839375000 
 N -2.36119002187500 5.13733902187500 4.46982139375000 
 N -4.35158802187500 0.596506021875001 3.59702339375000 
 N -4.51716002187500 4.47546502187500 3.33165139375000 
 N -5.04319602187500 0.956269021875001 7.36558039375000 
 N -5.12670502187500 4.60826502187500 7.11797939375000 
 S -5.76736402187500 0.295860021875001 6.00443539375000 
 S -5.99850602187500 4.44095202187500 5.72059239375000 
 S -2.79121902187500 1.14570102187500 3.22267339375000 
 S -2.99507502187500 4.97085402187500 2.91728639375000 
 S -3.46717802187500 1.47846102187500 7.23812939375000 
 S -3.54445002187500 4.98996602187500 6.97450439375000 
