16

 C -3.19482456875000 1.40490173750000 5.54598100312500 
 C -3.57486856875000 4.86924573750000 5.05044500312500 
 C -4.33010756875000 0.721003737499998 4.98122100312500 
 C -4.68425956875000 4.16805673750000 4.46952800312500 
 N -2.20951856875000 1.62027473750000 4.70651600312500 
 N -2.58805756875000 5.11170473750000 4.18914900312500 
 N -4.31806556875000 0.588269737499997 3.67681300312500 
 N -4.58937056875000 4.00149673750000 3.16986900312500 
 N -4.79120956875000 1.12756873750000 7.48947200312500 
 N -5.30667356875000 4.48509473750000 6.87484900312500 
 S -5.52871856875000 0.434432737499997 6.17240000312500 
 S -5.97263856875000 3.82025773750000 5.53372500312500 
 S -2.75782256875000 1.04291473750000 3.24403800312500 
 S -3.15015956875000 4.59687873750000 2.70414500312500 
 S -3.28860056875000 1.84905173750000 7.27969600312500 
 S -3.91836356875000 5.27683373750000 6.74039000312500 
