16

 C -3.30463485312500 0.888338862499998 5.47840476875000 
 C -3.25007185312500 5.20364486250000 5.44810376875000 
 C -4.53200685312500 0.639791862499997 4.74565876875000 
 C -4.39549785312500 4.64420986250000 4.78193376875000 
 N -2.27107385312500 1.13243386250000 4.70947776875000 
 N -2.22344485312500 5.44102486250000 4.66878476875000 
 N -4.31884085312500 0.648670862499998 3.44628376875000 
 N -4.27961285312500 4.57736186250000 3.46086576875000 
 N -5.12991385312500 0.754431862499998 7.22787476875000 
 N -5.07782185312500 4.55738986250000 7.20325676875000 
 S -5.92328685312500 0.555426862499997 5.79560876875000 
 S -5.67425485312500 3.98650386250000 5.75556776875000 
 S -2.73737585312500 0.912714862499998 3.12733876875000 
 S -2.82102185312500 5.13347486250000 3.05555376875000 
 S -3.51184685312500 0.941314862499998 7.15175176875000 
 S -3.59457885312500 5.39423286250000 7.17967476875000 
