16

 C -3.12413646250000 1.22653411875000 5.66050137500000 
 C -3.37637346250000 5.25712211875000 5.40898037500000 
 C -4.26016046250000 0.595440118750000 5.05271237500000 
 C -4.45694846250000 4.47103511875000 4.84048437500000 
 N -2.10427346250000 1.64279911875000 4.88073937500000 
 N -2.45216446250000 5.68024511875000 4.52939637500000 
 N -4.03438246250000 0.439258118750000 3.74024337500000 
 N -4.14300746250000 4.06309311875000 3.61419937500000 
 N -4.86570646250000 0.944855118750000 7.55397037500000 
 N -5.15784546250000 4.99413311875000 7.16895937500000 
 S -5.56374546250000 0.278636118750000 6.14038237500000 
 S -5.78121846250000 4.13075111875000 5.91751437500000 
 S -2.58594146250000 1.04956011875000 3.35797237500000 
 S -2.72945646250000 4.78602211875000 3.18841537500000 
 S -3.37302046250000 1.62354611875000 7.31524037500000 
 S -3.72560846250000 5.79545411875000 6.96250737500000 
