16

 C -2.64140133125000 1.59812965625000 5.34701692500000 
 C -3.36116133125000 5.00764165625000 5.61957292500000 
 C -3.72790933125000 0.835731656250000 4.80253692500000 
 C -4.51458533125000 4.52140565625000 4.89037592500000 
 N -1.75687433125000 2.11963665625000 4.49262392500000 
 N -2.41897833125000 5.44232265625000 4.77949792500000 
 N -3.70699633125000 0.757366656250000 3.47301492500000 
 N -4.37307333125000 4.34226265625000 3.58727392500000 
 N -4.29711033125000 1.08275865625000 7.33626892500000 
 N -5.17198233125000 4.47453365625000 7.42412892500000 
 S -5.06524333125000 0.503975656250000 5.97553792500000 
 S -5.82183933125000 4.00620365625000 5.95187092500000 
 S -2.39771333125000 1.64636965625000 2.99765692500000 
 S -2.94573633125000 5.14368565625000 3.21093592500000 
 S -2.94962733125000 2.01355265625000 7.03532492500000 
 S -3.65720233125000 5.20055165625000 7.33685492500000 
