16

 C -3.14906295625000 1.42561012187500 5.59662622500000 
 C -2.99948695625000 5.29054012187500 5.87324922500000 
 C -4.35311495625000 0.985779121875002 4.91221422500000 
 C -4.17039895625000 4.88899112187500 5.14141122500000 
 N -2.11988595625000 1.68064112187500 4.78809222500000 
 N -1.98631095625000 5.56362212187500 5.05236622500000 
 N -4.17578195625000 0.978685121875002 3.60607022500000 
 N -3.99413995625000 4.68971412187500 3.82918022500000 
 N -4.93557295625000 1.08576812187500 7.49401622500000 
 N -4.83000795625000 4.92857212187500 7.60824722500000 
 S -5.65641195625000 0.711536121875002 6.05408822500000 
 S -5.56018095625000 4.79354312187500 6.15605122500000 
 S -2.55998695625000 1.31210212187500 3.26854022500000 
 S -2.42010095625000 5.08209112187500 3.55051822500000 
 S -3.33306895625000 1.56556612187500 7.32315122500000 
 S -3.21374995625000 5.28895912187500 7.66764522500000 
