16

 C -2.86704722187500 1.31318939687500 5.47127314375000 
 C -3.04512722187500 5.22286439687500 5.61556114375000 
 C -4.06611822187500 0.856460396875000 4.79537714375000 
 C -4.13797022187500 4.55445839687500 4.97371514375000 
 N -1.78550522187500 1.34682439687500 4.70367914375000 
 N -1.98575122187500 5.40275739687500 4.82832414375000 
 N -3.90055722187500 0.704275396875000 3.48030014375000 
 N -3.96540222187500 4.30377739687500 3.66747414375000 
 N -4.74124122187500 1.10690239687500 7.41699714375000 
 N -4.72512922187500 4.67328339687500 7.51716314375000 
 S -5.48075722187500 0.757579396875000 5.92363014375000 
 S -5.46019322187500 4.33076239687500 6.07939114375000 
 S -2.34619222187500 0.997365396875000 3.11956614375000 
 S -2.42396322187500 4.90717039687500 3.30030514375000 
 S -3.09754922187500 1.36297639687500 7.25169214375000 
 S -3.20605822187500 5.40151039687500 7.38435314375000 
