16

 C -3.10883353125000 1.27445087500000 5.50875880312500 
 C -3.07773353125000 5.35294487500000 5.44721580312500 
 C -4.33892053125000 0.977605875000000 4.80920080312500 
 C -4.32177353125000 4.96127287500000 4.80244080312500 
 N -2.06472153125000 1.29835387500000 4.74635580312500 
 N -2.10967753125000 5.74440387500000 4.64693580312500 
 N -4.24780753125000 0.677457875000000 3.51295880312500 
 N -4.23759253125000 4.90357787500000 3.48914880312500 
 N -4.92889253125000 1.00274687500000 7.34730180312500 
 N -4.82433353125000 4.92788287500000 7.26557880312500 
 S -5.67293253125000 0.639147875000000 5.92306480312500 
 S -5.57471753125000 4.37903387500000 5.86748480312500 
 S -2.64360253125000 1.00338087500000 3.19515780312500 
 S -2.65054753125000 5.42049087500000 3.11618980312500 
 S -3.25953653125000 1.38283587500000 7.22844580312500 
 S -3.33153953125000 5.55252087500000 7.15447080312500 
