16

 C -2.88312164687499 1.90009907500000 5.43929453750000 
 C -3.11685464687499 5.19443607499999 5.49163653750000 
 C -4.09577564687500 1.50742807500000 4.80788353750000 
 C -4.30849764687499 4.86557407500000 4.73459753750000 
 N -1.87779964687499 1.90097307500000 4.58704453750000 
 N -1.98688564687499 5.21785507499999 4.78544953750000 
 N -4.00130664687499 1.22274007500000 3.53354353750000 
 N -4.11166364687499 4.72372707499999 3.44132253750000 
 N -4.59636264687499 1.74057207499999 7.24183553750000 
 N -4.90416364687499 4.88533407499999 7.26617753750000 
 S -5.40043864687499 1.40309407500000 5.86649353750000 
 S -5.70629064687499 4.59498107500000 5.80595253750000 
 S -2.45994564687499 1.55321207499999 3.04497753750000 
 S -2.48791564687499 4.86935207500000 3.16857453750000 
 S -3.01606564687499 2.22683307500000 7.10200853750000 
 S -3.30230164687499 5.30144207499999 7.22452653750000 
