16

 C -3.07477608125000 1.77853565937500 5.33443497187500 
 C -3.53264508125000 5.07560765937500 5.11583297187500 
 C -4.11779908125000 0.959350659375003 4.81055697187500 
 C -4.57706208125000 4.21267165937500 4.56595197187500 
 N -1.95184908125000 1.86096565937500 4.62206597187500 
 N -2.47716708125000 5.18366765937500 4.33236397187500 
 N -3.80426308125000 0.473536659375003 3.58061197187500 
 N -4.41248708125000 3.85784565937500 3.29305897187500 
 N -4.69725708125000 1.22066865937500 7.28599497187500 
 N -5.45100008125000 4.96096665937500 6.84899297187500 
 S -5.52139308125000 0.706427659375003 5.91796197187500 
 S -5.95531208125000 4.10740565937500 5.53967597187500 
 S -2.34615908125000 1.12002065937500 3.15071597187500 
 S -2.88950408125000 4.46252165937500 2.87313197187500 
 S -3.34939108125000 2.20268965937500 7.01584197187500 
 S -3.88989908125000 5.48473565937500 6.82517597187500 
