16

 C -3.18721248437500 1.17487479375000 5.51055387812500 
 C -3.11258148437500 5.48971179375000 5.69069087812500 
 C -4.41824948437500 0.751292793750001 4.91517787812500 
 C -4.22841848437500 4.89624179375000 5.01994687812500 
 N -2.20073748437500 1.34393779375000 4.61680287812500 
 N -2.14599148437500 5.93930579375000 4.89922987812500 
 N -4.37760148437500 0.601423793750001 3.61093587812500 
 N -4.11543848437500 4.85945379375000 3.68134287812500 
 N -4.98563548437500 0.867603793750001 7.44305387812500 
 N -4.82581248437500 4.70409279375000 7.43459687812500 
 S -5.78850148437500 0.474228793750001 6.00343787812500 
 S -5.56532248437500 4.34677879375000 6.03166387812500 
 S -2.82699448437500 1.14887579375000 3.13362487812500 
 S -2.68038348437500 5.57920179375000 3.33874287812500 
 S -3.37866248437500 1.23138679375000 7.26642287812500 
 S -3.33627548437500 5.42432579375000 7.38280587812500 
