16

 C -2.80904051562500 1.39334636562500 5.69568915312500 
 C -3.04367251562500 4.77322636562500 5.44341815312500 
 C -3.96679451562500 0.678210365625001 5.19146715312500 
 C -4.29265751562500 4.35910936562500 4.83650615312500 
 N -1.81364051562500 1.47858536562500 4.82692615312500 
 N -2.04890251562500 4.75150736562500 4.57534515312500 
 N -3.85160351562500 0.293097365625001 3.90243815312500 
 N -4.24066351562500 4.09035736562500 3.52369315312500 
 N -4.71554151562500 1.53139436562500 7.58004615312500 
 N -4.81547151562500 5.07412836562500 7.27237915312500 
 S -5.37126751562500 0.854574365625001 6.24810915312500 
 S -5.67077551562500 4.62766136562500 5.92439515312500 
 S -2.36954951562500 0.808631365625001 3.36679115312500 
 S -2.66826251562500 4.46019236562500 3.06731515312500 
 S -3.08293851562500 1.86921836562500 7.37220215312500 
 S -3.24041851562500 5.37253636562500 7.09915315312500 
