16

 C -3.08643884062500 1.44250623750000 5.47092223125000 
 C -3.35484884062500 5.31583423750000 5.44391323125000 
 C -4.30751484062500 0.931898237500000 4.91311423125000 
 C -4.51857684062500 4.81338923750000 4.74136123125000 
 N -2.08266684062500 1.62428423750000 4.63234323125000 
 N -2.31216084062500 5.48078523750000 4.63873523125000 
 N -4.18649584062500 0.734913237500000 3.59474023125000 
 N -4.36201684062500 4.67470323750000 3.42478623125000 
 N -4.81020784062500 1.24087823750000 7.43197323125000 
 N -5.09437984062500 4.72098723750000 7.20939323125000 
 S -5.60084384062500 0.655154237500000 6.06789423125000 
 S -5.85188784062500 4.45179923750000 5.74777323125000 
 S -2.65146184062500 1.27443923750000 3.13107723125000 
 S -2.79647784062500 5.20450723750000 3.10172123125000 
 S -3.22873284062500 1.61010923750000 7.21363323125000 
 S -3.52865684062500 5.24865223750000 7.23038723125000 
