16

 C -2.85477194062500 1.16058443750000 5.47916845312500 
 C -3.03202394062500 5.12856743750000 5.62208445312500 
 C -4.11666694062500 0.945641437500002 4.81213045312500 
 C -4.20823994062500 4.61281343750000 4.98601145312500 
 N -1.84670694062500 1.28830043750000 4.68574745312500 
 N -1.97143194062500 5.43259543750000 4.87775045312500 
 N -4.01096694062500 0.741601437500002 3.52165045312500 
 N -3.96057794062500 4.39680943750000 3.68918345312500 
 N -4.56908194062500 1.22373243750000 7.26610345312500 
 N -4.75592494062500 4.81035443750000 7.48805845312500 
 S -5.39819394062500 0.842134437500001 5.90524845312500 
 S -5.50576894062500 4.25576843750000 6.10210545312500 
 S -2.38174994062500 1.18719543750000 3.16253745312500 
 S -2.43026794062500 4.93955143750000 3.37056845312500 
 S -2.95319094062500 1.48396243750000 7.15234645312500 
 S -3.21545994062500 5.40210143750000 7.31048645312500 
