16

 C -3.36215288750000 1.24608249375000 5.43868405000000 
 C -3.18698888750000 5.00794249375000 5.30258005000000 
 C -4.49211288750000 0.679014493750002 4.73564905000000 
 C -4.44392788750000 4.62242749375000 4.65136405000000 
 N -2.30747288750000 1.34571549375000 4.65116305000000 
 N -2.10082088750000 5.02465149375000 4.58109305000000 
 N -4.34829288750000 0.408122493750002 3.44827105000000 
 N -4.22487588750000 4.29965849375000 3.38671505000000 
 N -5.29042288750000 1.10098149375000 7.14070405000000 
 N -4.99396188750000 4.99343449375000 7.19222305000000 
 S -5.89689188750000 0.456683493750003 5.74719705000000 
 S -5.80991988750000 4.80832549375000 5.77782005000000 
 S -2.82564888750000 0.905407493750002 3.07141805000000 
 S -2.61878188750000 4.56997149375000 3.04024005000000 
 S -3.70912288750000 1.47938749375000 7.12299205000000 
 S -3.30131588750000 5.54492249375000 6.92019005000000 
