16

 C -3.10534159375000 1.07400802187500 5.60334516875000 
 C -3.42383659375000 4.98759902187500 5.17986916875000 
 C -4.36454959375000 0.685272021875000 5.00983016875000 
 C -4.54034559375000 4.23202102187500 4.59606916875000 
 N -2.06683659375000 1.20435102187500 4.72631016875000 
 N -2.42642859375000 5.21997502187500 4.33243316875000 
 N -4.29822659375000 0.581729021875000 3.68004516875000 
 N -4.40073459375000 3.98794402187500 3.32298916875000 
 N -4.84960959375000 0.774856021875000 7.51382016875000 
 N -5.22544259375000 4.75438602187500 6.96941916875000 
 S -5.71180359375000 0.562273021875000 6.12449416875000 
 S -5.84375859375000 3.99183202187500 5.68523516875000 
 S -2.77431959375000 1.11386302187500 3.17127116875000 
 S -2.94151659375000 4.57545502187500 2.82873616875000 
 S -3.24124059375000 0.944813021875000 7.31593616875000 
 S -3.62874959375000 5.23632402187500 6.93661816875000 
