16

 C -3.05996004062499 1.31864676875000 5.78920242500000 
 C -2.96976904062499 4.86287276875000 5.47047142500000 
 C -4.38703204062499 1.06498276875000 5.31041042500000 
 C -4.22626904062499 4.66990676875000 4.76086242500000 
 N -2.20014604062499 1.08497176875000 4.76485742500000 
 N -1.85722404062499 4.86812176875000 4.70792842500000 
 N -4.53940904062499 0.664150768750002 4.02424142500000 
 N -4.08915104062499 4.70863176875000 3.42776142500000 
 N -4.69570904062499 1.77643576875000 7.75660942500000 
 N -4.58032704062499 4.57600976875000 7.44098842500000 
 S -5.63694404062499 1.19826676875000 6.48729642500000 
 S -5.54980304062499 4.40779476875000 5.97377442500000 
 S -3.07164104062499 0.582332768750002 3.42548842500000 
 S -2.45165904062499 4.74904376875000 3.18165842500000 
 S -3.05966304062499 1.80855676875000 7.49388342500000 
 S -2.98148804062499 4.89423976875000 7.17224542500000 
