16

 C -2.94010891250000 1.44923750312500 5.36681188750000 
 C -3.41261791250000 5.26182450312500 5.25310588750000 
 C -4.09781291250000 0.989862503124996 4.68070388750000 
 C -4.45872491250000 4.44927950312500 4.71094588750000 
 N -1.81773891250000 1.48853350312500 4.62087288750000 
 N -2.33008091250000 5.29594350312500 4.47302388750000 
 N -3.93300391250000 0.804767503124996 3.38362288750000 
 N -4.29408591250000 3.92588350312500 3.49159188750000 
 N -4.73671491250000 1.31861350312500 7.26935188750000 
 N -5.21015791250000 5.17905850312500 7.03168888750000 
 S -5.46731891250000 0.922113503124996 5.83421288750000 
 S -5.76842791250000 4.28614950312500 5.78020888750000 
 S -2.35785691250000 1.19354150312500 3.05987488750000 
 S -2.72094791250000 4.45619850312500 3.07604788750000 
 S -3.12369691250000 1.72223250312500 7.15696888750000 
 S -3.79613691250000 5.93338750312500 6.83151688750000 
