16

 C -3.05806758750000 1.31305705625000 5.79374398125000 
 C -2.96902658750000 4.85396605625000 5.46768798125000 
 C -4.38679258750000 1.06735205625000 5.30586098125000 
 C -4.22426758750000 4.66362805625000 4.76228798125000 
 N -2.19504458750000 1.07329905625000 4.76683798125000 
 N -1.85058658750000 4.86277205625000 4.70060898125000 
 N -4.54215658750000 0.656894056250002 4.03046998125000 
 N -4.09313358750000 4.70144705625000 3.42654898125000 
 N -4.68918158750000 1.77289805625000 7.74750098125000 
 N -4.58661358750000 4.57298305625000 7.44488398125000 
 S -5.63660458750000 1.20331705625000 6.49010998125000 
 S -5.54506558750000 4.41396905625000 5.97001898125000 
 S -3.06961758750000 0.584901056250003 3.42602598125000 
 S -2.45249958750000 4.75103705625000 3.17920098125000 
 S -3.05750658750000 1.80961205625000 7.48742798125000 
 S -2.98025958750000 4.89425005625000 7.17197598125000 
