16

 C -3.50037514375000 1.53796151250000 5.53496190000000 
 C -2.95710514375000 5.18734851250000 5.48487290000000 
 C -4.47100114375000 0.657829512499998 4.93090690000000 
 C -4.18467214375000 4.82741551250000 4.76126790000000 
 N -2.45084714375000 1.77748051250000 4.76039490000000 
 N -1.89186114375000 5.23572851250000 4.72647290000000 
 N -4.15443414375000 0.183709512499998 3.70635590000000 
 N -4.00633114375000 4.55947051250000 3.49112490000000 
 N -5.19009014375000 0.966852512499998 7.32558990000000 
 N -4.79280914375000 4.96634351250000 7.23609290000000 
 S -5.79116614375000 0.290917512499998 5.99105690000000 
 S -5.62070314375000 4.90005851250000 5.77785790000000 
 S -2.73500414375000 1.00250951250000 3.27457990000000 
 S -2.44833314375000 4.83377351250000 3.12642490000000 
 S -3.75659814375000 1.81581651250000 7.19502090000000 
 S -3.17737214375000 5.46384051250000 7.18885890000000 
