16

 C -3.56696582812500 1.36197717500000 5.79360143125000 
 C -3.31850082812500 5.19525417500000 5.33317143125000 
 C -4.60769882812500 0.804391174999999 4.99245343125000 
 C -4.52516482812500 4.62265317500000 4.75858343125000 
 N -2.39144582812500 1.57702117500000 5.19318043125000 
 N -2.31990582812500 5.33374217500000 4.48242743125000 
 N -4.27030782812500 0.693054174999999 3.72361643125000 
 N -4.37729682812500 4.29453717500000 3.47462443125000 
 N -5.48735582812500 0.862798174999999 7.31214143125000 
 N -4.83691082812500 4.84181917500000 7.37073743125000 
 S -6.13374482812500 0.548006174999998 5.77286543125000 
 S -5.77280882812500 4.44511417500000 5.98795543125000 
 S -2.71657682812500 1.16736117500000 3.64950943125000 
 S -2.83730182812500 4.83564817500000 3.03168343125000 
 S -3.95499682812500 1.46068717500000 7.43080843125000 
 S -3.27392082812500 5.35985717500000 7.04641143125000 
