16

 C -3.14688733125000 1.52668505625000 5.40948383437500 
 C -3.08415533125000 5.31127205624999 5.70246683437500 
 C -4.27450333125000 0.950266056249995 4.72276883437500 
 C -4.34130533125000 4.93348505625000 5.16359983437500 
 N -2.24647033125000 1.88592205624999 4.54915183437500 
 N -2.04206033125000 5.42578005625000 4.88799783437500 
 N -4.30131533125000 0.870629056249995 3.39992783437500 
 N -4.31354833125000 4.87623505625000 3.78048383437500 
 N -4.90239733125000 0.856645056249996 7.20998683437500 
 N -4.59099833125000 4.94707305625000 7.86197983437500 
 S -5.49031333125000 0.302332056249996 5.77618983437500 
 S -5.47461933125000 4.77199505625000 6.46475383437500 
 S -2.76012333125000 1.36942405625000 3.02128383437500 
 S -2.66467533125000 5.18243905625000 3.40939883437500 
 S -3.47155533125000 1.60123905625000 7.21534883437500 
 S -3.01830333125000 5.46161105625000 7.40521383437500 
