16

 C -3.26031021875000 1.09349621562500 5.53563768437500 
 C -3.18282321875000 5.32656021562500 5.78969468437500 
 C -4.50370421875000 0.673398215624998 4.86482768437500 
 C -4.36774321875000 4.86230321562500 5.03380868437500 
 N -2.36049121875000 1.52615621562500 4.66358968437500 
 N -2.28998121875000 5.85795721562500 4.98382768437500 
 N -4.45928421875000 0.644823215624998 3.51206768437500 
 N -4.20484321875000 4.72215021562500 3.72165068437500 
 N -5.01832421875000 0.764150215624998 7.36732668437500 
 N -4.83237721875000 4.61151021562500 7.62168968437500 
 S -5.85290321875000 0.457866215624997 5.91348168437500 
 S -5.58902021875000 4.38729621562500 6.18770268437500 
 S -2.88248721875000 1.16319521562500 3.19340468437500 
 S -2.70186821875000 5.50319421562500 3.41960868437500 
 S -3.42661921875000 1.23255421562500 7.23102068437500 
 S -3.32516621875000 5.30520421562500 7.54043168437500 
