16

 C -2.93828258437500 1.43364821250000 5.37848488125000 
 C -3.26777758437500 5.22866021250000 5.47123988125000 
 C -4.22733758437500 1.05526621250000 4.82232088125000 
 C -4.39887258437500 4.71887621250000 4.74184788125000 
 N -2.05067758437500 1.63390521250000 4.38514488125000 
 N -2.26411658437500 5.58245621250000 4.69228588125000 
 N -4.26473858437500 0.879232212499999 3.49205688125000 
 N -4.23992458437500 4.64521721250000 3.42473088125000 
 N -4.58185458437500 1.16522421250000 7.37918788125000 
 N -5.07921858437500 4.69836621250000 7.22815188125000 
 S -5.44707958437500 0.756630212499999 5.99744488125000 
 S -5.77913058437500 4.36026521250000 5.77766088125000 
 S -2.73354558437500 1.25161621250000 2.93950988125000 
 S -2.65010558437500 5.14842021250000 3.16409588125000 
 S -2.99619558437500 1.60735121250000 7.12899488125000 
 S -3.53342058437500 5.20698021250000 7.17671588125000 
