16

 C -3.32720379062500 0.911774350000001 5.43661213750000 
 C -3.20513779062500 4.87351835000000 5.61788713750000 
 C -4.58684779062500 0.739791350000001 4.75689013750000 
 C -4.43461579062500 4.56552035000000 4.99994813750000 
 N -2.30554479062500 1.11688235000000 4.62070713750000 
 N -2.18761479062500 5.12564935000000 4.75326413750000 
 N -4.45390679062500 0.838691350000000 3.42236913750000 
 N -4.38684779062500 4.41454135000000 3.69185213750000 
 N -4.94898379062500 0.568512350000001 7.35008213750000 
 N -5.01438679062500 4.66194035000000 7.47876713750000 
 S -5.80032479062500 0.322198350000001 5.91849413750000 
 S -5.78887379062500 4.49362535000000 6.01053113750000 
 S -2.85017779062500 0.989045350000000 3.07237713750000 
 S -2.88998579062500 4.81978735000000 3.20188913750000 
 S -3.32053079062500 0.809734350000000 7.13247713750000 
 S -3.32206079062500 4.72047635000000 7.35331913750000 
