16

 C -2.89139121250000 1.37373075625000 5.74626803750000 
 C -3.10978121250000 5.17002075625000 5.47567303750000 
 C -4.21306821250000 1.02191575625000 5.17364303750000 
 C -4.41989721250000 4.83699875625000 4.92328103750000 
 N -1.89110821250000 1.17250675625000 4.86241103750000 
 N -2.09699821250000 5.09942975625000 4.58910003750000 
 N -4.07534521250000 0.517806756250000 3.94017103750000 
 N -4.37718721250000 4.41173275625000 3.67166703750000 
 N -4.70640221250000 1.50761575625000 7.66703103750000 
 N -4.84380521250000 4.98168175625000 7.53649603750000 
 S -5.50146621250000 0.912313756250000 6.35926303750000 
 S -5.65448621250000 4.52865575625000 6.09615303750000 
 S -2.48698721250000 0.574933756249999 3.46078803750000 
 S -2.81481421250000 4.52942675625000 3.17569203750000 
 S -3.10506221250000 1.88270175625000 7.43846003750000 
 S -3.23313721250000 5.24971675625000 7.23690303750000 
