16

 C -3.00922330625000 1.42407663125000 5.46248220000000 
 C -3.13974430625000 5.03812263125000 5.39865120000000 
 C -4.15973630625000 1.00594563125000 4.77592120000000 
 C -4.40762030625000 4.55251263125000 4.91082520000000 
 N -1.92855930625000 1.61870663125000 4.67146120000000 
 N -2.17290430625000 5.17627263125000 4.47928420000000 
 N -3.94093230625000 0.756800631249999 3.48885420000000 
 N -4.33469730625000 4.20457463125000 3.64570120000000 
 N -5.02017230625000 1.33491663125000 7.17954120000000 
 N -4.90619030625000 5.12901663125000 7.36886520000000 
 S -5.61920830625000 0.936475631250000 5.69829020000000 
 S -5.68162530625000 4.42500563125000 6.06146720000000 
 S -2.37142630625000 1.07619063125000 3.16657720000000 
 S -2.85547130625000 4.64505263125000 3.08037120000000 
 S -3.44336030625000 1.83107263125000 7.18694520000000 
 S -3.30652530625000 5.49527263125000 7.04203220000000 
