16

 C -3.26566708437500 1.19108637500000 5.55220775937500 
 C -3.01165508437500 5.05135737500000 5.47703175937500 
 C -4.56850108437500 0.880273375000000 4.97492975937500 
 C -4.21770008437500 4.83735337500000 4.73438175937500 
 N -2.30979408437500 1.33809837500000 4.61213775937500 
 N -1.97866408437500 5.24335937500000 4.67075175937500 
 N -4.58052308437500 0.617349375000000 3.64579975937500 
 N -4.11661008437500 4.79861137500000 3.41129575937500 
 N -4.82325508437500 0.802018375000001 7.52131775937500 
 N -4.81875008437500 4.63597137500000 7.26007275937500 
 S -5.81293908437500 0.842543375000000 6.17922575937500 
 S -5.60748008437500 4.62806737500000 5.84449575937500 
 S -3.05640808437500 1.03225437500000 3.15570375937500 
 S -2.49876808437500 5.02636837500000 3.08152875937500 
 S -3.24563708437500 1.45617337500000 7.30944475937500 
 S -3.25311108437500 5.14119637500000 7.16102175937500 
