16

 C -3.06832457187500 1.52842098125000 5.64448153437500 
 C -3.08225457187500 5.20364698125000 5.65124653437500 
 C -4.36949857187500 1.20874698125000 5.08021553437500 
 C -4.30833757187500 4.86058398125000 4.96948253437500 
 N -2.07296757187500 1.81456498125000 4.80212753437500 
 N -2.05669657187500 5.45015798125000 4.85923453437500 
 N -4.38300457187500 1.40671698125000 3.75819553437500 
 N -4.23550157187500 4.90868598125000 3.65160353437500 
 N -4.76209757187500 1.61122098125000 7.54011353437500 
 N -4.87822357187500 4.94832898125000 7.47604253437500 
 S -5.67296957187500 1.29236898125000 6.15684853437500 
 S -5.62725557187500 4.58062298125000 6.01633253437500 
 S -2.80666857187500 1.69793598125000 3.29523153437500 
 S -2.60537457187500 5.23414298125000 3.31966853437500 
 S -3.12119257187500 1.82890398125000 7.33015453437500 
 S -3.21849957187500 5.28868998125000 7.40449953437500 
