16

 C -3.28895505625000 1.39468925937500 5.32505674062500 
 C -3.07739305625000 5.02238725937500 5.43278074062500 
 C -4.39510105625000 0.790156259374999 4.67018174062500 
 C -4.26408705625000 4.45688125937500 4.87694374062500 
 N -2.21601605625000 1.51258625937500 4.56734574062500 
 N -1.95799805625000 4.86114825937500 4.73627274062500 
 N -4.18627105625000 0.580587259374999 3.38705174062500 
 N -4.10965505625000 4.10669225937500 3.60289074062500 
 N -5.08520305625000 1.02528425937500 7.11088274062500 
 N -4.90569505625000 4.94274325937500 7.29496974062500 
 S -5.69451805625000 0.454296259374999 5.67525674062500 
 S -5.65385905625000 4.47761925937500 5.88839274062500 
 S -2.56417705625000 0.942386259375000 3.04220574062500 
 S -2.50719105625000 4.30668625937500 3.27865274062500 
 S -3.55280705625000 1.70129925937500 7.01379374062500 
 S -3.32251605625000 5.46202425937500 7.07922774062500 
