16

 C -3.04691177812500 1.49557902500000 5.75058209062500 
 C -3.07919577812500 5.17046502500000 5.82935009062500 
 C -4.18942277812500 1.01655802500000 5.07699409062500 
 C -4.31311177812500 4.96017102500000 5.12174309062500 
 N -2.03792877812500 1.64242702500000 4.92826809062500 
 N -2.01743177812500 5.25793502500000 5.03978409062500 
 N -4.11305877812500 0.858013024999999 3.79101209062500 
 N -4.17522877812500 4.87695802500000 3.78259009062500 
 N -4.93296277812500 1.39626002500000 7.43580809062500 
 N -4.86833477812500 5.11586902500000 7.60552409062500 
 S -5.54460977812500 0.707782024999999 6.02560909062500 
 S -5.66714477812500 4.76437102500000 6.21806109062500 
 S -2.53715877812500 1.22845502500000 3.40411009062500 
 S -2.53105577812500 5.15599602500000 3.49938809062500 
 S -3.30019477812500 1.89817902500000 7.39533909062500 
 S -3.27344177812500 5.50099102500000 7.51252109062500 
