16

 C -3.01725474687500 1.25469571250000 5.67827182187500 
 C -2.99838374687500 4.89565971250000 5.51407482187500 
 C -4.32100674687500 0.859087712500002 5.12415582187500 
 C -4.20287274687500 4.29839271250000 4.95782782187500 
 N -2.00963974687500 1.25452171250000 4.82293182187500 
 N -1.99842274687500 4.82672071250000 4.64696182187500 
 N -4.29346574687500 0.649483712500002 3.82349582187500 
 N -4.15572574687500 4.08804871250000 3.65977482187500 
 N -4.81861274687500 1.26941571250000 7.60057482187500 
 N -4.73120174687500 4.82955171250000 7.37877182187500 
 S -5.63736374687500 0.839681712500002 6.23965782187500 
 S -5.57909374687500 4.36766771250000 6.00740882187500 
 S -2.78516374687500 0.882638712500002 3.34816182187500 
 S -2.58437374687500 4.30964971250000 3.20431282187500 
 S -3.17277574687500 1.59429071250000 7.31621282187500 
 S -3.11816374687500 5.29196871250000 7.22212382187500 
