16

 C -2.94781304062500 1.43345190625000 5.75352005625000 
 C -3.17129804062500 4.65176890625000 5.59650705625000 
 C -4.18992104062500 1.22666690625000 5.12732005625000 
 C -4.45149404062500 4.53332090625000 4.92272105625000 
 N -1.88734104062500 1.49291790625000 4.94761105625000 
 N -2.08593804062500 4.68753690625000 4.84817505625000 
 N -4.08995504062500 1.01051090625000 3.80925305625000 
 N -4.36258904062500 4.61097290625000 3.59121205625000 
 N -4.72849104062500 1.50485790625000 7.61924705625000 
 N -4.96034904062500 4.61709990625000 7.48189905625000 
 S -5.52081404062500 1.25083790625000 6.24020605625000 
 S -5.77077904062500 4.38919690625000 6.04704505625000 
 S -2.52531904062500 1.27679790625000 3.35431505625000 
 S -2.72808404062500 4.67763290625000 3.29181605625000 
 S -3.07162604062500 1.64875090625000 7.52418605625000 
 S -3.35871504062500 4.92551690625000 7.29016805625000 
