16

 C -3.34024821562500 1.36085733750000 5.65327888750000 
 C -3.35768221562500 5.13638833750000 5.25717888750000 
 C -4.50836121562500 1.02174233750000 4.98292588750000 
 C -4.47526521562500 4.48482833750000 4.62617888750000 
 N -2.23177521562500 1.52744933750000 4.86702288750000 
 N -2.29958821562500 5.24783533750000 4.44576588750000 
 N -4.43248521562500 0.849714337500001 3.62893988750000 
 N -4.36931021562500 4.34212233750000 3.29191288750000 
 N -5.20992021562500 0.959779337500001 7.47085688750000 
 N -4.98246921562500 4.69439033750000 7.16774788750000 
 S -5.94534521562500 0.760217337500001 5.99500988750000 
 S -5.81003221562500 4.35441033750000 5.76946788750000 
 S -2.86277221562500 1.18916533750000 3.33516688750000 
 S -2.81398221562500 4.89085833750000 2.92087488750000 
 S -3.62673121562500 1.47847133750000 7.39507488750000 
 S -3.48005021562500 5.30867433750000 6.97192188750000 
