16

 C -3.18650526875000 1.33910482812500 5.23587941562500 
 C -2.98232626875000 4.93538982812500 5.62484241562500 
 C -4.27760626875000 0.648786828125000 4.59673141562500 
 C -4.24208526875000 4.52696582812500 5.05306641562500 
 N -2.14247026875000 1.71412382812500 4.53014141562500 
 N -2.03333226875000 5.20396682812500 4.72403141562500 
 N -4.09174426875000 0.523232828125000 3.29666941562500 
 N -4.24810626875000 4.38761982812500 3.72764841562500 
 N -4.89103326875000 0.817138828125000 7.13799241562500 
 N -4.54997426875000 4.74336882812500 7.60291841562500 
 S -5.58839826875000 0.314388828125000 5.72831741562500 
 S -5.46327526875000 4.45971582812500 6.27532641562500 
 S -2.57638326875000 1.18681282812500 2.94705541562500 
 S -2.66031926875000 4.76525582812500 3.21432941562500 
 S -3.34801226875000 1.49237682812500 6.97445641562500 
 S -2.91463326875000 5.06835882812500 7.39825341562500 
