16

 C -2.86563850312500 1.29030072500000 5.66228855312500 
 C -2.97821950312500 4.80127672500000 5.37966755312500 
 C -4.25009450312500 1.11001872500000 5.24753055312500 
 C -4.22051650312500 4.51314172500000 4.71932855312500 
 N -1.96759850312500 0.913541724999998 4.73227255312500 
 N -1.85772150312500 4.92170672500000 4.66207555312500 
 N -4.33499450312500 0.653951724999999 4.00554255312500 
 N -3.98673450312500 4.27704972500000 3.38350455312500 
 N -4.54667350312500 1.73367372500000 7.72802055312500 
 N -4.60757450312500 4.89809672500000 7.23078555312500 
 S -5.48429750312500 1.41264172500000 6.33073755312500 
 S -5.52585850312500 4.56358172500000 5.87906255312500 
 S -2.89963650312500 0.573490724999999 3.40301755312500 
 S -2.38177550312500 4.54952372500000 3.13866055312500 
 S -2.89025850312500 1.54649972500000 7.43121355312500 
 S -3.03311150312500 4.80334072500000 7.11122855312500 
