16

 C -3.31677176250000 1.27271650937500 5.57193442500000 
 C -3.24291276250000 5.11287350937500 5.27877342500000 
 C -4.52953776250000 1.11990750937500 4.87909842500000 
 C -4.48276976250000 4.61507850937500 4.69804442500000 
 N -2.26380876250000 1.24934350937500 4.76574742500000 
 N -2.20430676250000 5.11397350937500 4.44791142500000 
 N -4.41115576250000 1.02990850937500 3.56553442500000 
 N -4.33430776250000 4.17882950937500 3.43263842500000 
 N -5.12973076250000 1.24669850937500 7.37205942500000 
 N -5.00520076250000 4.90799550937500 7.15904142500000 
 S -5.91636476250000 1.00169250937500 5.89831042500000 
 S -5.83374576250000 4.49848950937500 5.76038242500000 
 S -2.79113776250000 0.975963509375001 3.18790842500000 
 S -2.80142476250000 4.44123650937500 2.96660742500000 
 S -3.48140476250000 1.41186650937500 7.25913242500000 
 S -3.41622076250000 5.45203550937500 6.96915742500000 
