16

 C -3.12589086875000 1.54640811249999 5.65926636250000 
 C -2.90980886875000 5.15040411249999 5.43405836250000 
 C -4.39608586875000 1.17521411249999 5.04204236250000 
 C -4.18006786875000 4.82989911249999 4.81931236250000 
 N -2.12192786875000 1.72694911249999 4.77634736250000 
 N -1.91702886875000 5.35881011249999 4.60110036250000 
 N -4.37645186875000 1.16530011249999 3.71060936250000 
 N -4.09964786875000 4.77347111249999 3.48863436250000 
 N -5.01682186875000 1.47361511249999 7.50216636250000 
 N -4.62880586875000 5.13942211249999 7.34482936250000 
 S -5.73053986875000 0.991960112499994 6.10759936250000 
 S -5.51617886875000 4.59679611249999 5.99193836250000 
 S -2.81964586875000 1.40596711249999 3.30309436250000 
 S -2.48233586875000 5.10008911249999 3.11855436250000 
 S -3.41213386875000 1.86468211249999 7.40877836250000 
 S -3.02741386875000 5.28984911249999 7.15399836250000 
