16

 C -3.14669928750000 1.15983623125000 5.54872793437500 
 C -3.11967028750000 5.72193623125000 5.59214393437500 
 C -4.39649728750000 0.715210231249999 4.90868393437500 
 C -4.17234728750000 4.91998123125000 4.93246493437500 
 N -2.18773628750000 1.30882823125000 4.68536293437500 
 N -2.03426428750000 5.88704623125000 4.84437693437500 
 N -4.34999528750000 0.682389231249998 3.58218393437500 
 N -3.94567328750000 4.80802023125000 3.63194393437500 
 N -5.05589328750000 1.25057323125000 7.35465593437500 
 N -4.85595028750000 5.06502423125000 7.35164493437500 
 S -5.78444928750000 0.745862231249999 5.93789593437500 
 S -5.54621828750000 4.45577023125000 5.99229693437500 
 S -2.74645828750000 1.03562623125000 3.14624793437500 
 S -2.46960228750000 5.38137823125000 3.30121893437500 
 S -3.42622728750000 1.46410723125000 7.25562793437500 
 S -3.45355128750000 5.93516423125000 7.25673993437500 
