16

 C -3.03112451250000 1.34768845312500 5.73248631562500 
 C -3.19255151250000 5.10161845312500 5.41956431562500 
 C -4.15712451250000 0.643442453125001 5.13233431562500 
 C -4.38742751250000 4.48786345312500 4.84932231562500 
 N -1.98768651250000 1.44270245312500 4.91626131562500 
 N -2.15069451250000 5.17942845312500 4.58187731562500 
 N -3.94691851250000 0.258148453125001 3.88341331562500 
 N -4.27881551250000 4.24391245312500 3.52695331562500 
 N -4.77052751250000 0.816818453125001 7.59110331562500 
 N -4.93804451250000 4.87263645312500 7.36883131562500 
 S -5.48986151250000 0.323399453125001 6.18077231562500 
 S -5.67242151250000 4.26845645312500 5.97333131562500 
 S -2.42291751250000 0.787191453125001 3.42364531562500 
 S -2.68205351250000 4.57235645312500 3.12941731562500 
 S -3.24102251250000 1.51089945312500 7.47493531562500 
 S -3.24430051250000 5.15727745312500 7.23996031562500 
