16

 C -3.11465893750000 1.50719105625000 5.64338231562500 
 C -3.14574593750000 4.86533905625000 5.47927431562500 
 C -4.42691193750000 1.32399905625000 5.12431331562500 
 C -4.43808193750000 4.65990705625000 4.84644931562500 
 N -2.17973793750000 1.66306705625000 4.71883131562500 
 N -2.11723293750000 5.06174405625000 4.65128031562500 
 N -4.48478493750000 1.19606405625000 3.82404331562500 
 N -4.34378593750000 4.62812105625000 3.53379831562500 
 N -4.76297393750000 1.65455205625000 7.61576131562500 
 N -4.98989293750000 4.78618205625000 7.29436631562500 
 S -5.66705893750000 1.29698705625000 6.23193731562500 
 S -5.81340693750000 4.56690705625000 5.90609131562500 
 S -2.91124593750000 1.47793705625000 3.22382131562500 
 S -2.77364093750000 4.88661405625000 3.09253531562500 
 S -3.12554193750000 1.77412505625000 7.33777131562500 
 S -3.35051393750000 5.00021505625000 7.24058831562500 
