16

 C -3.10339530937500 1.55017695937500 5.40772355625000 
 C -3.27064430937500 5.12959695937500 5.56435355625000 
 C -4.30544330937500 1.02546295937500 4.87620055625000 
 C -4.45382730937500 4.61457895937500 4.88263355625000 
 N -2.05593630937500 1.64552095937500 4.56484255625000 
 N -2.22709030937500 5.34500695937500 4.76254755625000 
 N -4.22637930937500 0.709885959374998 3.59550655625000 
 N -4.32471430937500 4.65883595937500 3.56333955625000 
 N -4.66104330937500 1.13087295937500 7.42178255625000 
 N -5.00572430937500 4.86351395937500 7.46612955625000 
 S -5.60371630937500 1.01420695937500 6.04623455625000 
 S -5.77552030937500 4.34616295937500 6.02632755625000 
 S -2.68913430937500 1.11350795937500 3.13813655625000 
 S -2.71557230937500 5.08645895937500 3.27581555625000 
 S -3.14561330937500 1.71311095937500 7.10492355625000 
 S -3.30515130937500 5.05680795937500 7.29559255625000 
