16

 C -2.96580757187500 1.02867988125000 5.82505910000000 
 C -3.20989557187500 4.94720188125000 5.57129110000000 
 C -4.21032357187500 0.659725881250000 5.20081910000000 
 C -4.35755557187500 4.44898988125000 4.90779310000000 
 N -1.95340957187500 1.15070288125000 4.97116810000000 
 N -2.28797157187500 5.40993988125000 4.73627410000000 
 N -4.10817557187500 0.452787881250000 3.90015610000000 
 N -4.24614557187500 4.35639388125000 3.56281510000000 
 N -4.91450757187500 0.996945881250000 7.61286310000000 
 N -4.98287857187500 4.63426088125000 7.40212210000000 
 S -5.60038357187500 0.520413881250000 6.19744510000000 
 S -5.61160657187500 4.00654488125000 6.02016310000000 
 S -2.57374457187500 0.907176881250000 3.42725310000000 
 S -2.77346557187500 5.03260388125000 3.18052710000000 
 S -3.26601357187500 1.27956188125000 7.54959010000000 
 S -3.47322357187500 5.31608188125000 7.28219210000000 
