16

 C -3.50752425937500 1.78925810000000 5.55037572500000 
 C -2.88739825937500 5.17004010000000 5.58504472500000 
 C -4.66981825937500 1.25547410000000 4.93223772500000 
 C -4.21189925937500 4.92777310000000 5.04067572500000 
 N -2.47283425937500 2.07622510000000 4.82659372500000 
 N -1.92735025937500 5.22916710000000 4.63871272500000 
 N -4.45076925937500 1.05096410000000 3.64728972500000 
 N -4.23809325937500 4.81050610000000 3.69825472500000 
 N -5.14864425937500 1.34374810000000 7.44128472500000 
 N -4.70374125937500 4.94052210000000 7.52170772500000 
 S -6.00472925937500 1.15672110000000 6.05413772500000 
 S -5.54252325937500 4.89505810000000 6.08082872500000 
 S -2.81603325937500 1.41783910000000 3.32999072500000 
 S -2.73620325937500 4.94452610000000 3.13204672500000 
 S -3.56670725937500 1.81590710000000 7.24681572500000 
 S -2.97923925937500 5.29012510000000 7.31608172500000 
