16

 C -3.16368523125000 1.45246756875000 5.23817947812500 
 C -3.07468123125000 5.23168356875000 5.56841047812500 
 C -4.31571823125000 0.938766568749998 4.59689647812500 
 C -4.31880023125000 4.79222156875000 5.03251247812500 
 N -2.16464223125000 1.78765056875000 4.44141147812500 
 N -2.06659523125000 5.24129756875000 4.68680647812500 
 N -4.34478723125000 0.992102568749998 3.25298247812500 
 N -4.33735023125000 4.56435856875000 3.72136747812500 
 N -4.72641423125000 0.517099568749998 7.20632847812500 
 N -4.63157623125000 5.03706456875000 7.55482847812500 
 S -5.48972323125000 0.276520568749998 5.75509647812500 
 S -5.52146823125000 4.43911256875000 6.25498747812500 
 S -2.77123123125000 1.59423256875000 2.89842947812500 
 S -2.71330223125000 4.89310056875000 3.23196447812500 
 S -3.24977023125000 1.28766356875000 7.04149347812500 
 S -3.05749723125000 5.58187256875000 7.21503047812500 
