16

 C -3.09792776250000 1.06969327812500 5.60355449062500 
 C -3.41300876250000 4.97482527812500 5.18169949062500 
 C -4.36856276250000 0.687715278125003 5.01076449062500 
 C -4.53701176250000 4.23838127812500 4.59703649062500 
 N -2.06895876250000 1.19947327812500 4.72781449062500 
 N -2.41846576250000 5.21982627812500 4.33871449062500 
 N -4.29485876250000 0.585802278125003 3.68551249062500 
 N -4.39744276250000 3.99043027812500 3.32647449062500 
 N -4.85307776250000 0.775034278125003 7.51363949062500 
 N -5.21955276250000 4.75041427812500 6.96966849062500 
 S -5.70757876250000 0.560516278125003 6.12082549062500 
 S -5.84490676250000 3.99585527812500 5.68969449062500 
 S -2.77156176250000 1.11111927812500 3.16958449062500 
 S -2.93611476250000 4.57846027812500 2.82983249062500 
 S -3.24895376250000 0.937651278125003 7.31343249062500 
 S -3.62612076250000 5.24036327812500 6.93650149062500 
