16

 C -3.25231285625000 1.35507259062500 5.24959102187500 
 C -3.15945085625000 5.04491959062500 5.38823602187500 
 C -4.51013885625000 0.887397590625000 4.70772102187500 
 C -4.40787885625000 4.97802559062500 4.63424102187500 
 N -2.27583685625000 1.60081059062500 4.36832302187500 
 N -2.08510885625000 5.14916259062500 4.62749902187500 
 N -4.42142885625000 0.803786590625000 3.37399602187500 
 N -4.28762085625000 5.24940659062500 3.31358602187500 
 N -5.02050985625000 1.23057359062500 7.21543802187500 
 N -4.88583385625000 4.73586759062500 7.19328902187500 
 S -5.84003585625000 0.643052590625000 5.87357802187500 
 S -5.68781085625000 4.93922459062500 5.81911002187500 
 S -2.86500485625000 1.21504159062500 2.91540302187500 
 S -2.61778485625000 5.34550259062500 3.09396502187500 
 S -3.38584785625000 1.56412459062500 6.98868702187500 
 S -3.30157585625000 5.01592059062500 7.11002502187500 
