16

 C -3.15323584375000 1.47666784062500 5.52391332500000 
 C -3.55416784375000 5.11749984062500 5.52945132500000 
 C -4.22758584375000 0.901250840625002 4.81828832500000 
 C -4.64331484375000 4.40738984062500 4.95545532500000 
 N -2.12818984375000 1.80715784062500 4.74662032500000 
 N -2.58129884375000 5.41479184062500 4.65686832500000 
 N -4.05416184375000 0.896279840625002 3.49345732500000 
 N -4.60347984375000 4.27161784062500 3.63871132500000 
 N -4.89577584375000 0.957938840625002 7.31116732500000 
 N -5.19166784375000 4.67543784062500 7.46000832500000 
 S -5.64766484375000 0.713680840625002 5.86656832500000 
 S -5.90840184375000 4.15868584062500 6.06615532500000 
 S -2.53043084375000 1.54945984062500 3.16009132500000 
 S -3.13622084375000 4.88100484062500 3.19920032500000 
 S -3.42774384375000 1.78075984062500 7.19638132500000 
 S -3.70839484375000 5.46608884062500 7.22998432500000 
