16

 C -3.07656955000000 1.40458566875000 5.52107761250000 
 C -2.89163855000000 5.17040766875000 5.87387061250000 
 C -4.29319055000000 0.901134668749997 4.81641161250000 
 C -4.05118555000000 4.70555566875000 5.14421761250000 
 N -2.11391855000000 1.71200666875000 4.64019961250000 
 N -1.85254355000000 5.45869066875000 5.09405161250000 
 N -4.21123955000000 0.867213668749996 3.48062761250000 
 N -3.87116955000000 4.60685366875000 3.83210361250000 
 N -4.88279355000000 0.766784668749996 7.38164961250000 
 N -4.73773155000000 4.89446266875000 7.60960961250000 
 S -5.66373455000000 0.650434668749996 5.88377561250000 
 S -5.48121055000000 4.59214566875000 6.17465261250000 
 S -2.73669655000000 1.47052766875000 3.12141161250000 
 S -2.32019555000000 5.07678866875000 3.53942461250000 
 S -3.31595555000000 1.26869466875000 7.26112261250000 
 S -3.17576755000000 5.40529966875000 7.61964861250000 
