16

 C -3.08766203750000 0.937160250000002 5.46614365312500 
 C -3.02250003750000 4.95756625000000 5.52097065312500 
 C -4.28455303750000 0.593845250000002 4.72597965312500 
 C -4.30178503750000 4.73599025000000 4.86562565312500 
 N -1.97133703750000 1.09095625000000 4.77300165312500 
 N -2.00793803750000 4.96340325000000 4.65737765312500 
 N -4.02914503750000 0.566348250000003 3.41859365312500 
 N -4.27573003750000 4.46044125000000 3.59976365312500 
 N -4.96711603750000 0.876341250000002 7.24562365312500 
 N -4.89509503750000 5.05135325000000 7.38850065312500 
 S -5.65109503750000 0.420030250000003 5.76690365312500 
 S -5.68090003750000 4.94649525000000 5.93353265312500 
 S -2.40972903750000 0.860079250000002 3.17521065312500 
 S -2.72833803750000 4.61896725000000 3.14218665312500 
 S -3.33133603750000 1.29403325000000 7.12633465312500 
 S -3.18817203750000 5.20616225000000 7.30107965312500 
