16

 C -3.04670724687500 1.25845530312500 5.71620571250000 
 C -3.23118124687500 5.30481830312500 5.34922571250000 
 C -4.17742224687500 0.672029303124998 4.98348071250000 
 C -4.29370624687500 4.48302530312500 4.85876371250000 
 N -2.05377924687500 1.52544730312500 4.87092971250000 
 N -2.26332124687500 5.57958330312500 4.46881571250000 
 N -3.99130224687500 0.467447303124998 3.67024371250000 
 N -3.96986224687500 3.86281230312500 3.73496471250000 
 N -4.88252424687500 1.06929730312500 7.43508371250000 
 N -5.02376024687500 5.10289630312500 7.23403971250000 
 S -5.49889524687500 0.311034303124998 6.02604871250000 
 S -5.51930424687500 4.13448430312500 6.03422871250000 
 S -2.47011624687500 0.931885303124998 3.33761371250000 
 S -2.60538024687500 4.58360330312500 3.15999571250000 
 S -3.29086324687500 1.63233430312500 7.41904371250000 
 S -3.60721824687500 5.88092830312500 6.97926571250000 
