16

 C -3.33626011562500 1.48895437812500 5.54230550625000 
 C -3.41188811562500 5.18719337812500 5.19854450625000 
 C -4.53545511562500 0.860271378125000 4.97668550625000 
 C -4.57502311562500 4.61163737812500 4.52485650625000 
 N -2.36100611562500 1.57234137812500 4.66205450625000 
 N -2.41021711562500 5.37319637812500 4.36349350625000 
 N -4.46786111562500 0.572420378125000 3.70120550625000 
 N -4.42145911562500 4.31454837812500 3.22056250625000 
 N -5.00325411562500 0.980745378125000 7.44409050625000 
 N -5.09661111562500 4.65572237812500 7.04417550625000 
 S -5.81954911562500 0.710946378125000 6.05911350625000 
 S -5.81177811562500 4.08735337812500 5.66746750625000 
 S -2.96374211562500 1.06496637812500 3.19998750625000 
 S -2.86346111562500 4.76953637812500 2.85102650625000 
 S -3.48540311562500 1.63726537812500 7.22293850625000 
 S -3.56461411562500 5.20421137812500 6.93274650625000 
