16

 C -3.49248242187500 1.69014203750000 5.41340189375000 
 C -3.23508442187500 5.04575103750000 5.70344789375000 
 C -4.60528842187500 1.13252603750000 4.65899089375000 
 C -4.48354242187500 4.89065103750000 5.01152789375000 
 N -2.46711842187500 2.04099603750000 4.65476389375000 
 N -2.21774642187500 5.23604303750000 4.85502989375000 
 N -4.33169042187500 0.949048037499998 3.31265289375000 
 N -4.36982842187500 4.71653503750000 3.66270489375000 
 N -5.40900942187500 1.43806203750000 7.08144189375000 
 N -4.92502142187500 5.03304103750000 7.56987789375000 
 S -5.93938542187500 0.760752037499998 5.67263189375000 
 S -5.75080042187500 4.73417603750000 6.15785489375000 
 S -2.77681342187500 1.54741903750000 3.07936089375000 
 S -2.78425742187500 4.91265303750000 3.35115989375000 
 S -3.81197842187500 1.94891203750000 7.06855189375000 
 S -3.26765142187500 5.27659103750000 7.39687189375000 
