16

 C -3.60146057812500 1.39587940000000 5.81632289687500 
 C -3.29990157812500 5.18496540000000 5.31754989687500 
 C -4.68659557812500 0.860021399999999 4.97776889687500 
 C -4.48202857812500 4.55095240000000 4.78435489687500 
 N -2.45963057812500 1.52638840000000 5.17628289687500 
 N -2.27984657812500 5.28683540000000 4.47875889687500 
 N -4.32539557812500 0.642566399999999 3.73498289687500 
 N -4.40735357812500 4.24065140000000 3.48199089687500 
 N -5.56502857812500 0.817016399999999 7.29407689687500 
 N -4.81284657812500 4.84198540000000 7.33169689687500 
 S -6.14900357812500 0.508374399999999 5.78109289687500 
 S -5.69791957812500 4.44640540000000 5.97803689687500 
 S -2.72875857812500 1.17459040000000 3.56917089687500 
 S -2.84343657812500 4.77986240000000 3.01373989687500 
 S -4.02484957812500 1.40216640000000 7.48250489687500 
 S -3.26129857812500 5.39381040000000 7.06399289687500 
