16

 C -3.28073744687500 1.04165579062500 5.67189870312500 
 C -2.98080644687500 5.07417779062500 5.46197970312500 
 C -4.42853244687500 0.536060790625000 4.95147670312500 
 C -4.09476244687500 4.44088679062500 4.80882970312500 
 N -2.16615444687500 1.19466779062500 4.92934070312500 
 N -1.89286944687500 5.31037579062500 4.71160670312500 
 N -4.13956344687500 0.383995790625001 3.67238470312500 
 N -3.88521344687500 4.28105379062500 3.50256070312500 
 N -5.18358544687500 0.771661790625000 7.39686970312500 
 N -4.71671744687500 4.77088479062500 7.31200870312500 
 S -5.82051144687500 0.347057790625001 5.96686170312500 
 S -5.51536844687500 4.32808179062500 5.89204070312500 
 S -2.62694144687500 0.950530790625001 3.34665870312500 
 S -2.36099444687500 4.86367479062500 3.15443070312500 
 S -3.55139844687500 0.977237790625001 7.33847570312500 
 S -3.08458744687500 5.16549179062500 7.17605470312500 
