16

 C -3.09829890937500 1.09098244375000 5.42580070312500 
 C -3.12463290937500 4.78330644375000 5.52775470312500 
 C -4.28542590937500 0.608891443750003 4.78470870312500 
 C -4.43861590937500 4.73055344375000 4.92512570312500 
 N -2.11655990937500 1.42561944375000 4.56857370312500 
 N -2.13371390937500 4.62302644375000 4.62249770312500 
 N -4.25454690937500 0.568083443750004 3.47004570312500 
 N -4.41991890937500 4.52022644375000 3.59207370312500 
 N -4.86232290937500 0.584017443750003 7.29619470312500 
 N -4.80180190937500 5.01686144375000 7.38769370312500 
 S -5.59492990937500 0.244167443750003 5.84219170312500 
 S -5.73988390937500 4.88563444375000 6.02377270312500 
 S -2.70617990937500 1.02026144375000 3.06042470312500 
 S -2.79514790937500 4.43355944375000 3.12399770312500 
 S -3.26033390937500 0.983165443750003 7.21896870312500 
 S -3.17993290937500 4.84528144375000 7.24017570312500 
