16

 C -3.06469756562500 1.29308044375000 5.27275347187500 
 C -2.88196556562500 5.13334844375000 5.57347247187500 
 C -4.27771756562500 0.802709443750001 4.57869147187500 
 C -4.13537256562500 4.62809944375000 5.09598547187500 
 N -2.08166956562500 1.80820644375000 4.50776147187500 
 N -1.97601256562500 5.28155644375000 4.61651747187500 
 N -4.19866956562500 0.899994443750002 3.25576047187500 
 N -4.28419456562500 4.43427744375000 3.78314947187500 
 N -4.68132756562500 0.603532443750002 7.13069747187500 
 N -4.55570656562500 5.08944444375000 7.62922747187500 
 S -5.50615356562500 0.193341443750001 5.71258047187500 
 S -5.37715256562500 4.50158744375000 6.32970047187500 
 S -2.70521856562500 1.55507644375000 2.96380547187500 
 S -2.74495956562500 4.79818844375000 3.17296447187500 
 S -3.10881956562500 1.24893344375000 6.96933847187500 
 S -2.98908556562500 5.45024644375000 7.34651247187500 
