16

 C -3.19382136562500 1.43364617500000 5.66325265625000 
 C -3.48212936562500 5.24034117500000 5.49254865625000 
 C -4.33354636562500 0.866326174999997 5.04185665625000 
 C -4.60053436562500 4.62220417500000 4.80895865625000 
 N -2.16603836562500 1.67832017500000 4.81977465625000 
 N -2.48582236562500 5.55305417500000 4.60107565625000 
 N -4.19128636562500 0.550822174999997 3.73975665625000 
 N -4.36030236562500 4.31637617500000 3.51320265625000 
 N -4.86007736562500 0.801035174999996 7.62936965625000 
 N -5.35095736562500 4.97580117500000 7.20549965625000 
 S -5.62017836562500 0.403675174999996 6.19018765625000 
 S -5.86724436562500 4.11299817500000 5.90481765625000 
 S -2.77588336562500 1.19607617500000 3.27614165625000 
 S -2.87102236562500 4.96603217500000 3.12015965625000 
 S -3.43359236562500 1.58390217500000 7.37305665625000 
 S -3.87454036562500 5.68367517500000 7.16897865625000 
