16

 C -2.98732907500001 1.37006370937500 5.37379190625000 
 C -3.17513207500001 5.25071670937500 6.00087390625000 
 C -4.21551707500001 0.888262709375000 4.68319590625000 
 C -4.37384007500001 4.90081170937500 5.29406290625000 
 N -2.00402507500001 1.73863270937500 4.57302690625000 
 N -2.05506907500001 5.36846570937500 5.22568490625000 
 N -4.11447007500001 0.863549709375000 3.37568390625000 
 N -4.24691807500001 4.80843070937500 3.97672790625000 
 N -4.83898307500001 1.15540270937500 7.20921690625000 
 N -5.06646507500001 5.04428470937500 7.79730790625000 
 S -5.55878507500001 0.672940709375000 5.80280590625000 
 S -5.84718307500001 4.84357570937500 6.29675990625000 
 S -2.49354807500001 1.33085670937500 2.99475690625000 
 S -2.64426007500001 5.13547270937500 3.67033790625000 
 S -3.23890607500001 1.66182270937500 7.06556990625000 
 S -3.42650807500001 5.53846770937500 7.71197290625000 
