16

 C -3.11886887187500 1.48379695000000 5.30118207187500 
 C -3.18371287187500 5.44489995000000 5.87343907187500 
 C -4.24357687187500 0.895281949999998 4.68118007187500 
 C -4.37422987187500 4.93404595000000 5.21103107187500 
 N -2.05501487187500 1.67909395000000 4.52190607187500 
 N -2.14868687187500 5.58929495000000 5.00303407187500 
 N -4.00912787187500 0.637214949999998 3.39640407187500 
 N -4.16814087187500 4.60604895000000 3.93285507187500 
 N -4.83746187187500 1.43905895000000 7.21013807187500 
 N -5.12282787187500 5.14931895000000 7.56531807187500 
 S -5.59829387187500 0.760318949999998 5.85727307187500 
 S -5.77189087187500 4.63611695000000 6.13691107187500 
 S -2.44161687187500 0.990109949999998 3.07209807187500 
 S -2.63932887187500 5.01006095000000 3.47941407187500 
 S -3.24135787187500 1.87952595000000 6.97030907187500 
 S -3.49864987187500 5.49638495000000 7.61016707187500 
