16

 C -3.28806689375000 1.12276145625000 5.51663243125000 
 C -3.19432589375000 5.44872145625000 5.72258543125000 
 C -4.46911989375000 0.664013456249998 4.84684143125000 
 C -4.27543289375000 4.81267945625000 5.05014843125000 
 N -2.27378289375000 1.40930945625000 4.74293843125000 
 N -2.26313989375000 5.93221245625000 4.94243443125000 
 N -4.40038989375000 0.591769456249999 3.54335143125000 
 N -4.16291589375000 4.81558645625000 3.71702543125000 
 N -5.00326089375000 0.750258456249998 7.33610643125000 
 N -4.81773489375000 4.63837145625000 7.59182643125000 
 S -5.74481689375000 0.504916456249998 5.93020643125000 
 S -5.58092889375000 4.37520545625000 6.06657843125000 
 S -2.94343889375000 1.16201845625000 3.17224643125000 
 S -2.67839689375000 5.53906745625000 3.39977243125000 
 S -3.39519289375000 1.24272145625000 7.28663043125000 
 S -3.29043489375000 5.35307145625000 7.49532043125000 
