16

 C -3.30334588437500 1.41925438437500 5.64606101562500 
 C -3.58176688437500 5.23023438437500 5.53598601562500 
 C -4.51712888437500 0.918819384374999 4.99811701562500 
 C -4.69687588437500 4.66737438437500 4.87504001562500 
 N -2.35648588437500 1.81443338437500 4.82771201562500 
 N -2.55210088437500 5.60908838437500 4.72548601562500 
 N -4.38232788437500 0.805845384374999 3.67158901562500 
 N -4.43996288437500 4.40877538437500 3.57722901562500 
 N -4.90825788437500 1.02556238437500 7.55735901562500 
 N -5.28057488437500 4.88269538437500 7.33964201562500 
 S -5.72685788437500 0.587063384374999 6.14395001562500 
 S -5.91718088437500 4.17849038437500 5.98843401562500 
 S -2.88432688437500 1.35800938437500 3.31679801562500 
 S -2.96323188437500 5.12522238437500 3.23772801562500 
 S -3.27414188437500 1.55268038437500 7.38459301562500 
 S -3.78676288437500 5.52489738437500 7.25416701562500 
