16

 C -3.25804544687500 0.856687206250001 5.48179562812500 
 C -3.28604744687500 5.14398720625000 5.47280962812500 
 C -4.50042944687500 0.566233206250001 4.74268362812500 
 C -4.48324044687500 4.62780920625000 4.79825362812500 
 N -2.21784244687500 1.11583220625000 4.67545962812500 
 N -2.26536944687500 5.39338120625000 4.68865962812500 
 N -4.44093344687500 0.592723206250001 3.40433662812500 
 N -4.35281544687500 4.56052220625000 3.47282962812500 
 N -5.13825044687500 0.723314206250000 7.25137462812500 
 N -4.98653644687500 4.48334120625000 7.33609762812500 
 S -5.88236444687500 0.579794206250001 5.76006462812500 
 S -5.76398744687500 4.12786620625000 5.86307162812500 
 S -2.81081644687500 0.949674206250001 3.14125962812500 
 S -2.75386944687500 5.05608120625000 3.17112962812500 
 S -3.46974944687500 0.870436206250001 7.21306162812500 
 S -3.55707244687500 5.30198220625000 7.22132362812500 
