16

 C -3.40475555312500 1.64259645000000 5.42772938750000 
 C -3.13318455312500 5.72570345000000 5.59700238750000 
 C -4.53811155312500 0.958546450000002 4.77312338750000 
 C -4.18188255312500 4.90524545000000 4.98298938750000 
 N -2.32134755312500 1.68731345000000 4.69758538750000 
 N -2.14761255312500 6.07497145000000 4.77114138750000 
 N -4.25413755312500 0.487915450000002 3.57578438750000 
 N -4.04168655312500 4.76914845000000 3.69309538750000 
 N -5.15772455312500 1.16241645000000 7.29951038750000 
 N -4.80299655312500 5.12381545000000 7.45309038750000 
 S -5.84871155312500 0.782494450000002 5.84092838750000 
 S -5.51433755312500 4.56925245000000 6.04940938750000 
 S -2.69605155312500 1.01475345000000 3.28108538750000 
 S -2.59955055312500 5.52892545000000 3.25671138750000 
 S -3.55932855312500 1.58762945000000 7.16413438750000 
 S -3.29481055312500 5.69166845000000 7.37840738750000 
