16

 C -2.96793058437500 1.39020746250000 5.33890594062500 
 C -3.22469758437500 4.86574146250000 5.52715594062500 
 C -4.17484958437500 0.954712462500003 4.75764994062500 
 C -4.44492358437500 4.36376346250000 4.92840494062500 
 N -2.08117058437500 1.69559946250000 4.41932494062500 
 N -2.27299458437500 5.34295446250000 4.73255294062500 
 N -4.17355558437500 0.799190462500003 3.45377794062500 
 N -4.37045758437500 4.46613546250000 3.61297594062500 
 N -4.50930358437500 0.994917462500003 7.29434594062500 
 N -4.99308058437500 4.50425546250000 7.41297594062500 
 S -5.41359558437500 0.703908462500003 5.91959894062500 
 S -5.78948958437500 4.05432346250000 5.98855994062500 
 S -2.67596358437500 1.35699846250000 2.90068294062500 
 S -2.90497658437500 5.07429846250000 3.19631394062500 
 S -3.03580058437500 1.76342646250000 7.07590994062500 
 S -3.42110958437500 4.99119946250000 7.28281294062500 
