16

 C -2.95021426250000 1.43937848437501 5.77022196250000 
 C -3.17295626250000 4.63547948437501 5.59876696250000 
 C -4.19887726250000 1.23108548437501 5.13527896250000 
 C -4.45532926250000 4.51663548437501 4.91438696250000 
 N -1.90871226250000 1.50143548437501 4.94298496250000 
 N -2.09106926250000 4.68315148437501 4.85849296250000 
 N -4.08997726250000 0.998714484375008 3.82231496250000 
 N -4.35350826250000 4.59316748437501 3.58308496250000 
 N -4.73147426250000 1.50787948437501 7.61716996250000 
 N -4.95123426250000 4.60832848437501 7.47932396250000 
 S -5.51748426250000 1.25066448437501 6.23231896250000 
 S -5.76352026250000 4.37637448437501 6.04223796250000 
 S -2.52892726250000 1.27402848437501 3.34547196250000 
 S -2.72264326250000 4.66189848437501 3.29337096250000 
 S -3.08471726250000 1.65312948437501 7.51597396250000 
 S -3.34562126250000 4.91083848437501 7.27670596250000 
