16

 C -3.24286994062501 1.09372975625001 5.19563743750000 
 C -3.22248394062501 5.00876675625001 5.57473143750000 
 C -4.55586294062501 0.810280756250008 4.65826243750000 
 C -4.47191694062501 4.61503375625001 5.00959143750000 
 N -2.23468694062501 1.13781575625001 4.32977143750000 
 N -2.30056594062501 5.19646875625001 4.59563343750000 
 N -4.53336894062501 0.732641756250008 3.33848343750000 
 N -4.53042694062501 4.56247575625001 3.68252643750000 
 N -4.81231094062501 1.49087275625001 7.07492743750000 
 N -4.90981794062501 4.91039275625001 7.55816643750000 
 S -5.73759594062501 0.852967756250009 5.90940543750000 
 S -5.76086894062501 4.43946975625001 6.14275343750000 
 S -2.88619194062501 0.837261756250009 2.86836143750000 
 S -2.99722594062501 4.96877175625001 3.10923643750000 
 S -3.19937794062501 1.67462175625001 6.84419343750000 
 S -3.22695794062501 5.25592875625001 7.34219443750000 
