16

 C -3.74140964687500 1.21464501250000 5.74492764062500 
 C -3.10613464687500 5.06169401250000 5.33720364062500 
 C -4.79951764687500 0.716168012499998 4.96600064062500 
 C -4.33454664687500 4.46037501250000 4.82939364062500 
 N -2.65587964687500 1.53066301250000 5.08047564062500 
 N -2.12632364687500 5.06996801250000 4.44049964062500 
 N -4.57067264687500 0.679338012499998 3.66320564062500 
 N -4.33792764687500 4.21177901250000 3.51418564062500 
 N -5.60759064687500 0.688793012499998 7.31756364062500 
 N -4.79142464687500 4.96741601250000 7.29973064062500 
 S -6.26670164687500 0.302583012499998 5.83784464062500 
 S -5.60963864687500 4.31523401250000 6.01679964062500 
 S -2.95256764687500 1.15014601250000 3.48551664062500 
 S -2.81999464687500 4.61464201250000 2.96602464062500 
 S -4.08070364687500 1.28604301250000 7.39740464062500 
 S -3.22114264687500 5.51365201250000 7.01487764062500 
