16

 C -3.24068865625000 1.41399959687500 5.62540133125000 
 C -3.03855565625000 5.19770559687500 5.47863133125000 
 C -4.45419765625000 1.17055859687500 4.83510433125000 
 C -4.28097765625000 4.71050459687500 4.84519233125000 
 N -2.17008765625000 1.69960559687500 4.88920133125000 
 N -2.02539665625000 5.33868859687500 4.65446633125000 
 N -4.23490565625000 1.28343159687500 3.52627133125000 
 N -4.20173565625000 4.75785959687500 3.51717833125000 
 N -5.06114065625000 1.07810359687500 7.42081333125000 
 N -4.80893965625000 5.26782659687500 7.26716933125000 
 S -5.75006465625000 0.876163596875000 5.90793533125000 
 S -5.67961265625000 4.64015659687500 6.00711233125000 
 S -2.65460765625000 1.77709059687500 3.30750133125000 
 S -2.58623965625000 5.10196159687500 3.13488033125000 
 S -3.42055765625000 1.15223759687500 7.34321833125000 
 S -3.17124565625000 5.47154059687500 7.17889533125000 
