16

 C -2.92676066562500 1.77830085625000 5.40083476562500 
 C -3.50125766562500 5.15792185625000 5.56239576562500 
 C -3.99057066562500 1.08086785625000 4.75217876562500 
 C -4.56563466562500 4.45778085625000 4.92307776562500 
 N -1.94813966562500 2.17050785625000 4.58570076562500 
 N -2.56560766562500 5.59144985625000 4.72748076562500 
 N -3.77144166562500 0.841274856249999 3.45013876562500 
 N -4.46394366562500 4.33141985625000 3.58267376562500 
 N -4.53558866562500 1.14167985625000 7.27335876562500 
 N -5.29836266562500 4.72070585625000 7.35260476562500 
 S -5.11386066562500 0.429131856249999 5.88706476562500 
 S -5.85263366562500 3.93031985625000 6.02785176562500 
 S -2.28706466562500 1.56453285625000 3.06688976562500 
 S -2.98944166562500 5.04346085625000 3.24732176562500 
 S -3.05987466562500 1.92506385625000 7.15377976562500 
 S -3.74406666562500 5.31614585625000 7.25291076562500 
