16

 C -3.07499489375000 1.21680143437500 5.34486068750000 
 C -2.89535489375000 5.00954143437500 5.72213768750000 
 C -4.32914689375000 0.867058434375000 4.66902468750000 
 C -4.10049989375000 4.53707543437500 5.08066868750000 
 N -2.11049189375000 1.58221643437500 4.47925768750000 
 N -1.91578089375000 5.28982043437500 4.87746568750000 
 N -4.19109889375000 0.963273434375000 3.34174768750000 
 N -3.95595689375000 4.39627643437500 3.75924268750000 
 N -4.89457989375000 0.761881434375000 7.16906068750000 
 N -4.57298389375000 4.83271143437500 7.69777368750000 
 S -5.55906589375000 0.318059434375000 5.71290568750000 
 S -5.38396189375000 4.38343743437500 6.26211068750000 
 S -2.65549089375000 1.41209343437500 2.95220168750000 
 S -2.40580889375000 4.86315443437500 3.39464468750000 
 S -3.35047089375000 1.23806843437500 7.08928868750000 
 S -2.97235989375000 5.33474443437500 7.47943968750000 
