16

 C -2.88256415312500 1.36226038750000 5.65996999375000 
 C -3.05756315312500 4.80454738750000 5.39537599375000 
 C -4.04210215312500 0.815260387500000 5.13937699375000 
 C -4.30881315312500 4.46099038750000 4.79963999375000 
 N -1.93902215312500 1.55388938750000 4.76009899375000 
 N -2.02430215312500 4.84931138750000 4.53213799375000 
 N -3.98833315312500 0.373434387500001 3.90020699375000 
 N -4.24353115312500 4.09414538750000 3.52219799375000 
 N -4.67443815312500 1.47037238750000 7.49015099375000 
 N -4.89805415312500 5.11809138750000 7.18216299375000 
 S -5.39012215312500 0.775209387500001 6.13152199375000 
 S -5.65444415312500 4.50409038750000 5.79168799375000 
 S -2.48433715312500 0.799319387500001 3.39579299375000 
 S -2.69059315312500 4.35373538750000 3.06918299375000 
 S -3.06218415312500 1.85765738750000 7.34502199375000 
 S -3.19062915312500 5.40151638750000 7.06768199375000 
