16

 C -2.90661644375000 2.10784218125000 5.51852536875000 
 C -3.13839444375000 5.27348218125000 5.32941736875000 
 C -4.12114644375000 1.59835618125000 4.90878836875000 
 C -4.29270144375000 4.75795318125000 4.62724836875000 
 N -1.89030144375000 2.26626718125000 4.68686836875000 
 N -2.11075544375000 5.70052518125000 4.58938836875000 
 N -4.00814444375000 1.46444518125000 3.58375936875000 
 N -4.11220144375000 4.68746318125000 3.28934136875000 
 N -4.63266544375000 1.74748618125000 7.37389536875000 
 N -4.92391844375000 5.07163318125000 7.15540236875000 
 S -5.43172744375000 1.41172918125000 5.94729036875000 
 S -5.66355544375000 4.58711118125000 5.72892936875000 
 S -2.50637344375000 1.82685918125000 3.14646336875000 
 S -2.56639444375000 5.28571518125000 3.01954236875000 
 S -3.01151144375000 2.23641118125000 7.25206636875000 
 S -3.28448544375000 5.32666218125000 7.04939636875000 
