16

 C -3.16356695625000 1.14884330000000 5.54139592500000 
 C -3.34116895625000 4.78414830000000 5.42228792500000 
 C -4.23029095625000 0.555718300000001 4.81316192500000 
 C -4.61060295625000 4.70812730000000 4.78991292500000 
 N -2.16634195625000 1.59878730000000 4.78213392500000 
 N -2.34708495625000 4.88212630000000 4.54251892500000 
 N -4.14663895625000 0.646199300000001 3.49254792500000 
 N -4.59464895625000 4.65873330000000 3.46224092500000 
 N -5.09462895625000 0.668307300000001 7.31050692500000 
 N -5.09895395625000 4.80473430000000 7.26119392500000 
 S -5.63580995625000 7.197630000000110E-002 5.81977192500000 
 S -5.98992795625000 4.51634030000000 5.90655692500000 
 S -2.61389795625000 1.27059830000000 3.16228992500000 
 S -3.01327595625000 4.77598030000000 2.99332492500000 
 S -3.53559695625000 1.18705230000000 7.37333892500000 
 S -3.46297895625000 4.77905630000000 7.12404692500000 
