16

 C -3.04197888437500 1.44571449375000 5.55068984062500 
 C -3.24612288437500 5.04479149375000 5.41577284062500 
 C -4.22970088437500 0.855659493750002 4.78945384062500 
 C -4.46551688437500 4.48522949375000 4.87381384062500 
 N -1.97972988437500 1.62120549375000 4.76524484062500 
 N -2.24077588437500 5.14703549375000 4.56990984062500 
 N -4.02280288437500 0.615617493750002 3.49272584062500 
 N -4.44200688437500 4.31193049375000 3.56724284062500 
 N -4.98438488437500 1.36927149375000 7.18765784062500 
 N -4.90146188437500 5.24158449375000 7.29493384062500 
 S -5.66083388437500 0.859139493750002 5.71624184062500 
 S -5.75332388437500 4.50442449375000 6.07982684062500 
 S -2.43719288437500 1.05183649375000 3.22769584062500 
 S -2.85358888437500 4.63284649375000 3.09225884062500 
 S -3.36668688437500 1.88840749375000 7.14117684062500 
 S -3.31557988437500 5.58169449375000 7.02402984062500 
