16

 C -3.18991981875000 1.11227735312500 5.50843171250000 
 C -3.24338581875000 4.67475935312500 5.58737971250000 
 C -4.30374581875000 0.683440353125001 4.73945871250000 
 C -4.53583881875000 4.38359835312500 5.04968271250000 
 N -2.09418981875000 1.45752335312500 4.83059771250000 
 N -2.23608581875000 4.75806635312500 4.73223671250000 
 N -4.14265981875000 0.819914353125001 3.42266471250000 
 N -4.50699781875000 4.46296735312500 3.72012571250000 
 N -5.03463181875000 0.271701353125001 7.15972571250000 
 N -4.97206681875000 4.66313035312500 7.57226271250000 
 S -5.67221081875000 7.242935312500087E-002 5.65272471250000 
 S -5.84435581875000 4.56554635312500 6.17128471250000 
 S -2.56325281875000 1.33789335312500 3.19028771250000 
 S -2.95223381875000 4.67459435312500 3.21927671250000 
 S -3.54019181875000 0.834672353125001 7.21715471250000 
 S -3.31507581875000 4.95418535312500 7.30765771250000 
