16

 C -3.02521585000000 1.27154060312501 5.63941893437500 
 C -3.11051885000000 5.05387660312501 5.52278793437500 
 C -4.26380285000000 0.799156603125006 5.01033593437500 
 C -4.25887785000000 4.43006860312501 4.90313093437500 
 N -1.99070085000000 1.30954960312501 4.79413993437500 
 N -2.06486585000000 5.17196260312501 4.71584293437500 
 N -4.13131085000000 0.371973603125006 3.75823193437500 
 N -4.00936785000000 4.01346260312501 3.66942593437500 
 N -4.80794985000000 1.16558860312501 7.46248893437500 
 N -4.85166285000000 4.89108960312501 7.43190693437500 
 S -5.56887485000000 0.688840603125006 6.07888993437500 
 S -5.60091585000000 4.32957260312501 6.05249093437500 
 S -2.55537685000000 0.723502603125006 3.39643893437500 
 S -2.44271685000000 4.49467160312501 3.27872093437500 
 S -3.23193685000000 1.63276260312501 7.35098693437500 
 S -3.30880985000000 5.34823660312501 7.19782193437500 
