16

 C -3.18071255625000 1.70867978437500 5.39547769375000 
 C -3.06733855625000 5.00455278437500 5.57595769375000 
 C -4.39262855625000 1.30483378437500 4.78530369375000 
 C -4.24767755625000 4.53475278437500 4.88176669375000 
 N -2.12593655625000 1.85656978437500 4.55687969375000 
 N -2.05505655625000 5.15328478437500 4.75624869375000 
 N -4.32987055625000 1.27629378437500 3.47146569375000 
 N -4.17326755625000 4.40043278437500 3.57451869375000 
 N -4.98017055625000 1.15533078437500 7.23861669375000 
 N -4.89309555625000 4.68446678437500 7.48746069375000 
 S -5.75077155625000 0.924348784375002 5.80412369375000 
 S -5.58733955625000 4.50434878437500 5.96631869375000 
 S -2.75239555625000 1.60142178437500 3.06827769375000 
 S -2.60308455625000 4.75440878437500 3.22935869375000 
 S -3.35205855625000 1.69946278437500 7.14873569375000 
 S -3.33899855625000 5.29811078437500 7.32412869375000 
