16

 C -2.96433915312500 1.34214889062500 5.58224048437500 
 C -3.05935715312500 5.08207789062500 5.17615048437500 
 C -4.10925415312500 0.962628890624999 4.84882148437500 
 C -4.33455815312500 4.87815589062500 4.53672048437500 
 N -1.86609415312500 1.47655889062500 4.79461348437500 
 N -2.08244115312500 5.11095889062500 4.30966348437500 
 N -3.91910515312500 0.752397890625000 3.55510248437500 
 N -4.28577615312500 4.57090089062500 3.23190648437500 
 N -4.93854715312500 1.53784889062500 7.23223348437500 
 N -4.73942815312500 5.01692789062500 7.14275148437500 
 S -5.49848115312500 0.878637890625000 5.83801848437500 
 S -5.60955815312500 4.80569989062500 5.74528348437500 
 S -2.30229415312500 0.916912890624999 3.25179848437500 
 S -2.71517515312500 4.74037889062500 2.78536748437500 
 S -3.28145315312500 1.67209689062500 7.30054748437500 
 S -3.09545415312500 5.34322289062500 6.92577148437500 
