16

 C -3.78901343437500 1.16206315937500 5.67582573750000 
 C -3.11357743437500 5.00046415937500 5.30605173750000 
 C -4.87690043437500 0.533957159374996 4.92289673750000 
 C -4.32843443437500 4.42565915937500 4.80755473750000 
 N -2.73465043437500 1.45574715937500 4.91022173750000 
 N -2.08442343437500 5.08678915937500 4.47211473750000 
 N -4.67392543437500 0.531073159374996 3.61078273750000 
 N -4.28589043437500 4.21733715937500 3.50393173750000 
 N -5.61427643437500 0.672032159374996 7.40974873750000 
 N -4.75916143437500 5.02891215937500 7.31683773750000 
 S -6.18991543437500 0.190883159374996 5.95911473750000 
 S -5.55168643437500 4.24714615937500 6.06940873750000 
 S -3.10635243437500 1.16901015937500 3.31755773750000 
 S -2.67215843437500 4.53499715937500 3.02427373750000 
 S -4.05865743437500 1.21254515937500 7.39489273750000 
 S -3.16189843437500 5.47163415937500 6.95439073750000 
