16

 C -3.08211118125000 1.57193419062500 5.50243455312500 
 C -2.88033818125000 4.87826019062500 5.40084755312500 
 C -4.33656618125000 1.13159419062500 4.92772555312500 
 C -4.19393918125000 4.73411219062500 4.76796355312500 
 N -2.07140418125000 1.59497119062500 4.61245355312500 
 N -1.89961918125000 4.86036719062500 4.53557655312500 
 N -4.25578718125000 0.798856190624999 3.65403055312500 
 N -4.19209218125000 4.40825119062500 3.49654155312500 
 N -4.86607218125000 1.39965319062500 7.39828255312500 
 N -4.69603718125000 5.17217519062500 7.28972255312500 
 S -5.64668918125000 0.829274190624999 6.00002755312500 
 S -5.56066718125000 4.93968819062500 5.89860455312500 
 S -2.69781818125000 1.17723819062500 3.15867355312500 
 S -2.61586318125000 4.45480219062500 3.03075755312500 
 S -3.25530418125000 1.83328519062500 7.20396455312500 
 S -3.07430218125000 5.29293019062500 7.05836855312500 
