16

 C -3.05454742500000 1.35052788750000 5.47062582187500 
 C -2.90462042500000 5.18608088750000 5.47714182187500 
 C -4.21077442500000 0.870979887499997 4.71009882187500 
 C -4.17208142500000 4.92484388750000 4.92491282187500 
 N -1.98797342500000 1.57665688750000 4.76821882187500 
 N -1.92750042500000 5.27422188750000 4.59466582187500 
 N -3.97770242500000 0.656006887499997 3.43836182187500 
 N -4.16720742500000 4.66996588750000 3.61591482187500 
 N -4.97478742500000 1.20840788750000 7.23067282187500 
 N -4.65087142500000 5.11934288750000 7.33410482187500 
 S -5.59721842500000 0.622392887499997 5.73845082187500 
 S -5.47919142500000 4.99588888750000 5.95211782187500 
 S -2.32259742500000 1.07662488750000 3.21477382187500 
 S -2.59798742500000 4.88493388750000 3.10810782187500 
 S -3.31117942500000 1.34772688750000 7.16177182187500 
 S -3.10763542500000 5.42376588750000 7.19994582187500 
