16

 C -3.26019429375000 1.45823820625000 5.57969730000000 
 C -3.36112829375000 5.08914920625000 5.47017630000000 
 C -4.46766229375000 1.01541020625000 4.91398630000000 
 C -4.58941829375000 4.56066020625000 4.91819730000000 
 N -2.24213929375000 1.57136520625000 4.71329930000000 
 N -2.39539429375000 5.36127620625000 4.58378930000000 
 N -4.35332829375000 0.945485206249999 3.58671630000000 
 N -4.52188129375000 4.42114120625000 3.60254330000000 
 N -5.05338129375000 1.30365520625000 7.32702030000000 
 N -5.14196229375000 4.96437320625000 7.39545830000000 
 S -5.76108329375000 0.719319206249999 5.93348330000000 
 S -5.86423329375000 4.26211020625000 6.07471930000000 
 S -2.77572429375000 1.32832620625000 3.17117830000000 
 S -3.00464929375000 4.88575720625000 3.11736630000000 
 S -3.39659629375000 1.50901820625000 7.31441730000000 
 S -3.47502929375000 5.16813920625000 7.22097030000000 
