16

 C -3.27669651562500 1.16558554375000 5.91948035625000 
 C -2.91417351562500 4.61698154375000 5.31533435625000 
 C -4.38644451562500 0.623823543749999 5.17806335625000 
 C -4.23205851562500 4.50215354375000 4.75917035625000 
 N -2.25902751562500 1.49864054375000 5.19246435625000 
 N -1.96963051562500 4.86055854375000 4.43231335625000 
 N -4.28456451562500 0.707957543750000 3.86735435625000 
 N -4.26057151562500 4.46977654375000 3.44369935625000 
 N -4.94108851562500 0.436352543750000 7.68777735625000 
 N -4.64410251562500 4.54457254375000 7.28655535625000 
 S -5.73225851562500 0.295790543749999 6.24549735625000 
 S -5.54262051562500 4.50491654375000 5.87992935625000 
 S -2.70645651562500 1.28783254375000 3.61293535625000 
 S -2.71583951562500 4.71166054375000 2.91820235625000 
 S -3.48588451562500 1.29196454375000 7.66344835625000 
 S -3.04105951562500 4.82338254375000 7.05117335625000 
