16

 C -2.92828231562500 1.24786340625000 5.51996645312500 
 C -2.94734731562500 5.02606740625000 5.69019045312500 
 C -4.06984131562500 0.682023406250000 4.84553345312500 
 C -4.16410931562500 4.50100140625000 5.09156245312500 
 N -1.85233431562500 1.30269740625000 4.73384945312500 
 N -1.97041731562500 5.21703140625000 4.81679645312500 
 N -3.86940831562500 0.430241406250000 3.54474345312500 
 N -4.05603331562500 4.43236640625000 3.76577845312500 
 N -4.87214931562500 1.21557240625000 7.20544045312500 
 N -4.60579231562500 4.86901940625000 7.66153345312500 
 S -5.48795831562500 0.537954406250000 5.77784145312500 
 S -5.42156531562500 4.26388740625000 6.33495045312500 
 S -2.29896231562500 0.853604406250000 3.24136545312500 
 S -2.51816931562500 4.86626840625000 3.28662845312500 
 S -3.25550131562500 1.63588640625000 7.15237945312500 
 S -3.05980631562500 5.40092040625000 7.41145345312500 
