16

 C -2.99727630000000 1.26808618437500 5.53834317187500 
 C -3.17549230000000 5.43781118437500 5.29636717187500 
 C -4.17423430000000 0.865503184375002 4.86712217187500 
 C -4.30408630000000 4.80371318437500 4.66228517187500 
 N -1.96183430000000 1.33204318437500 4.67866617187500 
 N -2.11846730000000 5.57503218437500 4.48756517187500 
 N -4.11301230000000 0.747646184375002 3.54182317187500 
 N -4.24388130000000 4.74228118437500 3.35275117187500 
 N -4.89301030000000 1.03100618437500 7.32137117187500 
 N -4.84997930000000 4.94349518437500 7.24037717187500 
 S -5.65242130000000 0.839198184375002 5.88670317187500 
 S -5.59747330000000 4.55585818437500 5.80597917187500 
 S -2.44492030000000 0.951435184375002 3.17121617187500 
 S -2.70162230000000 5.23158818437500 2.93804917187500 
 S -3.31801430000000 1.51469818437500 7.24740017187500 
 S -3.26714430000000 5.47887318437500 7.07606417187500 
