16

 C -3.15604385937500 1.25294669062500 5.21756054687500 
 C -3.31460485937500 5.00571769062500 5.43172954687500 
 C -4.45344485937500 0.905051690624996 4.68414054687500 
 C -4.57422385937500 4.63866669062500 4.88050054687500 
 N -2.18994785937500 1.16324269062500 4.26157254687500 
 N -2.26722885937500 5.21432569062500 4.62478454687500 
 N -4.50061385937500 0.629389690624995 3.36954354687500 
 N -4.51565985937500 4.50963869062499 3.55865654687500 
 N -4.91028985937500 1.30161169062499 7.17171554687500 
 N -4.81631685937500 4.88887369062500 7.48860254687500 
 S -5.79290885937500 0.804808690624995 5.79243354687500 
 S -5.77225285937500 4.50075269062500 6.19318554687500 
 S -2.99441785937500 0.787681690624995 2.82406754687500 
 S -2.95690485937500 4.89421269062499 3.14693954687500 
 S -3.26323485937500 1.58499269062500 6.92802354687500 
 S -3.24859685937500 5.24912169062500 7.11753254687500 
