16

 C -2.88559009687500 1.71749709375000 5.75500590312500 
 C -3.32356809687500 5.37771909375000 5.40897890312500 
 C -4.14010109687500 1.46137609375000 5.15588990312500 
 C -4.56496809687500 4.91426309375000 4.81585390312500 
 N -1.88710709687500 1.83593409375000 4.88100990312500 
 N -2.32269509687500 5.55840509375000 4.55759390312500 
 N -4.11057309687500 1.49763509375000 3.84370790312500 
 N -4.49260909687500 4.86660609375000 3.46772290312500 
 N -4.68233109687500 1.64752609375000 7.64307790312500 
 N -4.97552909687500 5.09826709375000 7.34680490312500 
 S -5.46922009687500 1.43264009375000 6.21915990312500 
 S -5.75996909687500 4.48346609375000 6.02553490312500 
 S -2.51684809687500 1.69939209375000 3.32702890312500 
 S -2.99859909687500 5.34778809375000 3.00771690312500 
 S -3.01536109687500 1.69692509375000 7.49154190312500 
 S -3.44954709687500 5.72736609375000 7.07889090312500 
