16

 C -3.07948370000000 1.40012450937500 5.50486510312500 
 C -2.89202270000000 5.17312050937500 5.86986610312500 
 C -4.28391670000000 0.887275509374995 4.81227210312500 
 C -4.05136870000000 4.69538750937499 5.13969410312500 
 N -2.10254270000000 1.72220050937500 4.64411310312500 
 N -1.84940970000000 5.44929350937500 5.09999610312500 
 N -4.22189670000000 0.880337509374995 3.46348710312500 
 N -3.88226170000000 4.61888050937500 3.83250610312500 
 N -4.88460070000000 0.763539509374996 7.38487110312500 
 N -4.73759370000000 4.90680850937500 7.60591910312500 
 S -5.66090170000000 0.643001509374995 5.88458810312500 
 S -5.46840570000000 4.57484950937500 6.17043410312500 
 S -2.73530970000000 1.47087450937500 3.10899110312500 
 S -2.31813370000000 5.06821950937500 3.53004710312500 
 S -3.32055370000000 1.25912150937500 7.25838510312500 
 S -3.17116570000000 5.41220950937500 7.62888910312500 
