16

 C -3.13422909375000 1.23194208750000 5.43328474687500 
 C -3.07018409375000 5.06202708750000 5.63718974687500 
 C -4.24344109375000 0.638827087500004 4.74135474687500 
 C -4.16864109375000 4.52555008750000 4.93260374687500 
 N -2.12347009375000 1.76270308750000 4.66496674687500 
 N -1.98414109375000 5.27178008750000 4.90544574687500 
 N -4.02505509375000 0.702093087500004 3.40568474687500 
 N -3.91416509375000 4.30146108750000 3.64015174687500 
 N -4.77981509375000 0.955746087500004 7.31700474687500 
 N -5.14457009375000 5.09828208750000 7.18967774687500 
 S -5.54351309375000 0.363799087500005 5.99084374687500 
 S -5.61213809375000 4.31209308750000 5.74021774687500 
 S -2.51831109375000 1.36744008750000 3.11751574687500 
 S -2.43587409375000 4.83941208750000 3.33428274687500 
 S -3.30091309375000 1.62390708750000 7.14583674687500 
 S -3.55525009375000 5.59401708750000 7.30350074687500 
