16

 C -3.26058599687500 1.35883860000000 5.24314998750000 
 C -3.16960899687500 5.04939360000000 5.38617798750000 
 C -4.51004599687500 0.882473600000000 4.70494798750000 
 C -4.41414099687500 4.97247360000000 4.63690698750000 
 N -2.27756699687500 1.58916060000000 4.36946498750000 
 N -2.08814599687500 5.15127760000000 4.63030698750000 
 N -4.42375999687500 0.797148600000001 3.36924098750000 
 N -4.28437199687500 5.25319760000000 3.31007898750000 
 N -5.01625299687500 1.23103060000000 7.22032898750000 
 N -4.89287299687500 4.73455160000000 7.19208298750000 
 S -5.84245999687500 0.637526600000001 5.87293598750000 
 S -5.68587299687500 4.94311960000000 5.81982598750000 
 S -2.87095399687500 1.20964460000000 2.91650998750000 
 S -2.61523099687500 5.35134460000000 3.09286898750000 
 S -3.38332599687500 1.56536460000000 6.99113698750000 
 S -3.30435399687500 5.02135460000000 7.11261598750000 
