16

 C -3.17171540625000 1.26467047500000 5.36968794375000 
 C -3.11914640625000 4.92185647500000 5.48735094375000 
 C -4.27114240625000 0.577689475000000 4.81538994375000 
 C -4.44562340625000 4.66916747500000 4.95487894375000 
 N -2.21622940625000 1.64796647500000 4.50499094375000 
 N -2.16761740625000 5.03040747500000 4.57753194375000 
 N -4.20262640625000 0.281884475000000 3.49748494375000 
 N -4.47868540625000 4.46455047500000 3.64506394375000 
 N -4.88802440625000 1.20716747500000 7.33351694375000 
 N -4.80147340625000 4.81813247500000 7.51185994375000 
 S -5.56662640625000 0.342378474999999 6.11576294375000 
 S -5.72304240625000 4.62651047500000 6.12363994375000 
 S -2.69967040625000 0.891266474999999 3.01996294375000 
 S -2.91976840625000 4.71249547500000 3.07592494375000 
 S -3.38926840625000 1.87491147500000 7.00528594375000 
 S -3.20257540625000 5.31677947500000 7.17227494375000 
