16

 C -3.20732236562500 1.14865078750000 5.57862231250000 
 C -3.34616536562500 4.87096278750000 5.49304431250000 
 C -4.29041136562500 0.588462787500001 4.77132931250000 
 C -4.64895936562500 4.69718478750000 4.86295031250000 
 N -2.12264836562500 1.49947178750000 4.90808631250000 
 N -2.34899336562500 4.77453578750000 4.65683831250000 
 N -4.05523736562500 0.649590787500001 3.46570731250000 
 N -4.60162336562500 4.64225178750000 3.52928131250000 
 N -4.91681236562500 0.275078787500001 7.14470431250000 
 N -5.01012336562500 4.69745478750000 7.43124331250000 
 S -5.61419236562500 6.707478750000107E-002 5.65929331250000 
 S -5.88073836562500 4.58837478750000 6.02644131250000 
 S -2.55916336562500 1.34517778750000 3.30767431250000 
 S -2.99053436562500 4.61849578750000 3.12616531250000 
 S -3.49054236562500 1.04174778750000 7.21996231250000 
 S -3.35524636562500 4.78764178750000 7.23277931250000 
