16

 C -3.14943235000000 1.45241924375000 5.32660731875000 
 C -3.13830735000000 5.25079924375000 5.52870331875000 
 C -4.39406135000000 0.979119243750001 4.62902231875000 
 C -4.40418235000000 4.75047024375000 4.95668831875000 
 N -2.18154935000000 1.80227124375000 4.44891331875000 
 N -2.11030335000000 5.35139024375000 4.70619331875000 
 N -4.31366335000000 0.986115243750001 3.29904831875000 
 N -4.32086035000000 4.60996124375000 3.63808231875000 
 N -4.73647135000000 0.538850243750002 7.19497231875000 
 N -4.65525035000000 5.00813224375000 7.53194831875000 
 S -5.55125935000000 0.317007243750002 5.72679731875000 
 S -5.58571135000000 4.46277924375000 6.23088831875000 
 S -2.85243435000000 1.57545924375000 2.88326631875000 
 S -2.73961235000000 4.94523824375000 3.22596531875000 
 S -3.27306535000000 1.36138224375000 7.07408231875000 
 S -3.13346535000000 5.59141824375000 7.24138931875000 
