16

 C -3.04463348750000 1.12692113437500 5.48774124062500 
 C -3.08992748750000 5.06937513437500 5.54588424062500 
 C -4.19398848750000 0.640013134374997 4.82136724062500 
 C -4.37794048750000 4.84134313437500 4.84770824062500 
 N -1.94871048750000 1.12001413437500 4.73472424062500 
 N -1.98629148750000 5.02901913437500 4.79186124062500 
 N -4.00727348750000 0.270067134374997 3.55470224062500 
 N -4.18880748750000 4.70628913437500 3.52870824062500 
 N -5.07697448750000 1.23627113437500 7.11745524062500 
 N -4.86126448750000 5.22593313437500 7.36190224062500 
 S -5.64882748750000 0.488026134374998 5.70195124062500 
 S -5.70814148750000 4.72518513437500 6.02866924062500 
 S -2.46157848750000 0.647786134374997 3.16708724062500 
 S -2.56345548750000 4.76211113437500 3.23893324062500 
 S -3.41117448750000 1.38719713437500 7.19209824062500 
 S -3.20049448750000 5.48922613437500 7.22618524062500 
