16

 C -3.19346411562499 1.44563076250000 5.56215016250000 
 C -2.99990711562499 5.22470076250000 5.43956416250000 
 C -4.34163511562499 0.779519762500001 5.02250516250000 
 C -4.26296511562499 4.90703776250000 4.80635216250000 
 N -2.23083611562499 1.49714876250000 4.64092016250000 
 N -1.96521811562499 5.40746276250000 4.57689816250000 
 N -4.33859111562499 0.459442762500001 3.75553816250000 
 N -4.16204211562499 4.87828876250000 3.47251416250000 
 N -4.98986611562499 1.28268776250000 7.44233616250000 
 N -4.65179811562499 5.13019876250000 7.38068916250000 
 S -5.61931411562499 0.398212762500001 6.16518516250000 
 S -5.53160211562499 4.64121376250000 6.03375316250000 
 S -2.92121511562499 1.05123876250000 3.21783316250000 
 S -2.53143911562499 5.22436076250000 3.09322116250000 
 S -3.46128911562499 1.85305976250000 7.27057216250000 
 S -2.94559411562499 5.41386176250000 7.12711016250000 
