16

 C -3.16810590937500 1.31500183125000 5.85671897187500 
 C -3.04122990937500 4.76749983125000 5.41983297187500 
 C -4.36008590937500 0.774640831250001 5.19872197187500 
 C -4.37074590937500 4.54573983125000 4.85659197187500 
 N -2.17888690937500 1.61383683125000 4.96698097187500 
 N -2.09074490937500 4.76846583125000 4.49904997187500 
 N -4.26157190937500 0.744743831250001 3.85643997187500 
 N -4.40776590937500 4.52244083125000 3.51707397187500 
 N -4.91141090937500 0.674034831250002 7.65290397187500 
 N -4.59394290937500 4.65222683125000 7.43142897187500 
 S -5.57053490937500 0.105829831250002 6.23315497187500 
 S -5.63179090937500 4.32800383125000 6.12661797187500 
 S -2.73665190937500 1.29559283125000 3.41985797187500 
 S -2.82857390937500 4.67796283125000 2.99793997187500 
 S -3.26635490937500 1.08358983125000 7.59879397187500 
 S -2.96908090937500 4.78521283125000 7.13566697187500 
