16

 C -3.00486245312500 1.46686026875000 5.71675443125000 
 C -3.12478745312500 5.14433926875000 5.79289743125000 
 C -4.16029745312500 0.928441268749999 5.03751943125000 
 C -4.36177045312500 4.86517926875000 5.07273143125000 
 N -1.93387645312500 1.77177326875000 4.93433543125000 
 N -2.04934245312500 5.27564926875000 5.04754843125000 
 N -4.01927445312500 0.759014268749999 3.72521243125000 
 N -4.21862745312500 4.89341126875000 3.75293143125000 
 N -4.89856245312500 1.43996226875000 7.49926843125000 
 N -4.89783645312500 5.15559426875000 7.65580443125000 
 S -5.55646645312500 0.745825268749999 6.13949643125000 
 S -5.67120345312500 4.79433926875000 6.18210543125000 
 S -2.46818945312500 1.20601226875000 3.41137643125000 
 S -2.57913145312500 5.11530826875000 3.45921943125000 
 S -3.34383045312500 1.95626526875000 7.37438543125000 
 S -3.25162645312500 5.58142326875000 7.49296043125000 
