16

 C -2.80372728125000 1.50487350000000 5.78634741250000 
 C -3.40487428125000 5.43015750000000 5.55291941250000 
 C -4.13687328125000 1.36059150000000 5.17830841250000 
 C -4.62727728125000 4.95878450000000 4.92498741250000 
 N -1.75806828125000 1.59451550000000 4.94543541250000 
 N -2.40999528125000 5.62522749999999 4.66593941250000 
 N -4.11010728125000 1.35243950000000 3.84367741250000 
 N -4.51156528125000 4.74222250000000 3.62745441250000 
 N -4.54459228125000 1.36422150000000 7.69223441250000 
 N -5.07825228125000 5.05245550000000 7.45795141250000 
 S -5.44655628125000 1.38659850000000 6.30209441250000 
 S -5.91639628125000 4.74131749999999 6.06245841250000 
 S -2.48347428125000 1.47404550000000 3.48933541250000 
 S -2.94756528125000 5.18031350000000 3.21027541250000 
 S -2.92390428125000 1.53985649999999 7.54485541250000 
 S -3.46037928125000 5.35269950000000 7.30402241250000 
