16

 C -3.56815299687500 1.96872634375000 5.34310306250000 
 C -3.22049399687500 5.05042934375000 5.70260106250000 
 C -4.62465799687500 1.25384534375000 4.61970906250000 
 C -4.48645299687500 4.64270334375000 5.12642806250000 
 N -2.47645399687500 2.11746134375000 4.59188006250000 
 N -2.15959299687500 5.04983534375000 4.85369306250000 
 N -4.32210899687500 0.893663343750000 3.30980306250000 
 N -4.42778299687500 4.54704234375000 3.78416406250000 
 N -5.35995699687500 1.22117334375000 7.10481406250000 
 N -5.01054799687500 4.99369034375000 7.58682106250000 
 S -5.96454999687500 0.760340343750000 5.60678806250000 
 S -5.87202399687500 4.76096234375000 6.18845906250000 
 S -2.84400299687500 1.56147234375000 3.05463206250000 
 S -2.77532099687500 4.81991934375000 3.33436006250000 
 S -3.83770899687500 1.80506734375000 7.08131206250000 
 S -3.37699399687500 5.18847334375000 7.42336906250000 
