16

 C -3.14949335312500 1.59570894062500 5.56067370000000 
 C -3.14882835312500 4.98063494062500 5.51636170000000 
 C -4.45481835312500 1.31112794062500 4.99948570000000 
 C -4.37940135312500 4.60147394062500 4.87297870000000 
 N -2.15089035312500 1.77176994062500 4.66386570000000 
 N -2.15091235312500 5.24092994062500 4.67049770000000 
 N -4.45510235312500 1.31644294062500 3.63872770000000 
 N -4.31273635312500 4.54922594062500 3.55123970000000 
 N -4.69277135312500 1.62951594062500 7.65159970000000 
 N -4.92220635312500 4.63799994062500 7.39754870000000 
 S -5.71071035312500 1.44642994062500 6.36065370000000 
 S -5.72173835312500 4.52613594062500 5.90609570000000 
 S -2.94180635312500 1.55065794062500 3.18566570000000 
 S -2.80820335312500 4.97480894062500 3.18393170000000 
 S -3.07352735312500 1.67505794062500 7.35868270000000 
 S -3.25365335312500 4.85807294062500 7.25515270000000 
