16

 C -2.85643950000000 1.49422593437501 5.43324370625000 
 C -3.48003150000000 5.12384693437500 5.20173470625000 
 C -4.05626350000000 1.07126993437500 4.84407770625000 
 C -4.55627050000000 4.34804893437500 4.65323070625000 
 N -1.79026350000000 1.58629193437501 4.66553570625000 
 N -2.34645650000000 5.17056093437500 4.47966170625000 
 N -3.92496550000000 0.889357934375004 3.54390970625000 
 N -4.31206550000000 3.98441193437501 3.39579170625000 
 N -4.78107050000000 1.42276793437500 7.13647070625000 
 N -5.33991250000000 5.14903093437501 7.01396870625000 
 S -5.42991150000000 0.807354934375005 5.72762970625000 
 S -5.89220450000000 4.12788993437501 5.77744470625000 
 S -2.35064150000000 1.15446693437501 3.09350870625000 
 S -2.76479650000000 4.38960293437500 3.02940570625000 
 S -3.16858950000000 1.94565093437500 7.07732670625000 
 S -3.83255850000000 5.82513093437501 6.72590370625000 
