16

 C -2.96228632812500 1.21872077812500 5.55815414062500 
 C -2.99208732812500 5.11035477812500 5.66557814062500 
 C -4.10713032812500 0.702626778125001 4.88914014062500 
 C -4.11332032812500 4.45692777812500 5.10801414062500 
 N -1.90974132812500 1.38542777812500 4.76609414062500 
 N -2.04543232812500 5.35367677812500 4.77071314062500 
 N -3.92894832812500 0.358138778125001 3.62089514062500 
 N -4.00723132812500 4.08105477812500 3.83931514062500 
 N -4.87495332812500 1.35977677812500 7.29648414062500 
 N -4.72714132812500 4.82157277812500 7.49744514062500 
 S -5.59774932812500 0.641866778125001 5.96336014062500 
 S -5.49958432812500 4.39282977812500 6.07071214062500 
 S -2.32521432812500 0.773316778125001 3.31026814062500 
 S -2.56887132812500 4.70251077812500 3.34532014062500 
 S -3.25196932812500 1.61783977812500 7.25620914062500 
 S -3.16953032812500 5.36014477812500 7.35554514062500 
