16

 C -3.08338817812500 1.26728387187500 5.68797523125000 
 C -2.98487017812500 4.89316187187500 5.44034923125000 
 C -4.33123317812500 0.900651871874999 4.99956823125000 
 C -4.18523117812500 4.38582587187500 4.89639723125000 
 N -2.07209217812500 1.33486087187500 4.83484123125000 
 N -1.94062417812500 4.94828387187500 4.60377723125000 
 N -4.22884317812500 0.721975871874998 3.69054923125000 
 N -4.05868017812500 3.90361187187500 3.64379723125000 
 N -4.77903417812500 1.23695887187500 7.54536123125000 
 N -4.72791617812500 5.00627387187500 7.41340923125000 
 S -5.60946917812500 0.839392871874999 6.22329723125000 
 S -5.49945117812500 4.30606387187500 6.09245823125000 
 S -2.59883817812500 0.920581871874998 3.29960023125000 
 S -2.50611117812500 4.31075887187500 3.15646023125000 
 S -3.12623917812500 1.56539487187500 7.41543523125000 
 S -3.12873217812500 5.33143487187500 7.06443723125000 
