16

 C -2.91290916875000 1.59465783750000 5.44529768125000 
 C -3.15037016875000 5.18925883750000 5.56771468125000 
 C -4.03891216875000 0.973991837500003 4.84598668125000 
 C -4.25534316875000 4.52989683750000 4.85812668125000 
 N -1.95354116875000 1.77439883750000 4.50683868125000 
 N -2.08305216875000 5.40253883750000 4.84336068125000 
 N -4.01199416875000 0.700113837500002 3.54990268125000 
 N -3.83898216875000 4.15514383750000 3.60644068125000 
 N -4.62048116875000 1.00739683750000 7.23305468125000 
 N -4.97250616875000 4.92356583750000 7.39267468125000 
 S -5.33609616875000 0.408914837500003 5.86330468125000 
 S -5.67408816875000 4.43886183750000 5.87579368125000 
 S -2.61299816875000 1.21616783750000 3.04621768125000 
 S -2.31731816875000 4.67481383750000 3.37791568125000 
 S -3.14287716875000 1.69881483750000 7.14859868125000 
 S -3.41346216875000 5.44381383750000 7.22152268125000 
