16

 C -3.33442613750000 1.17033102500000 5.48505865000000 
 C -3.25090713750000 5.00056702500000 5.33213065000000 
 C -4.48718013750000 0.628344025000001 4.81832665000000 
 C -4.42006713750000 4.61881902500000 4.63563265000000 
 N -2.30595913750000 1.38849602500000 4.64340665000000 
 N -2.13495113750000 4.98159902500000 4.60152865000000 
 N -4.37364013750000 0.501396025000002 3.50313165000000 
 N -4.15384013750000 4.32833302500000 3.33279965000000 
 N -5.44383413750000 1.15480402500000 7.11634165000000 
 N -4.95860913750000 5.18096802500000 7.13986065000000 
 S -5.86849313750000 0.330289025000002 5.71206965000000 
 S -5.84150013750000 4.81628902500000 5.74737265000000 
 S -2.81234613750000 0.920907025000002 3.10797065000000 
 S -2.49445613750000 4.55250402500000 3.04561665000000 
 S -3.75429713750000 1.53936902500000 7.19666065000000 
 S -3.32996313750000 5.56159902500000 6.94861665000000 
