16

 C -3.59116774375000 1.91809858750000 5.31455173750000 
 C -3.22463974375000 5.02483658750000 5.66189873750000 
 C -4.63133574375000 1.24785258750000 4.60431773750000 
 C -4.49499774375000 4.70570758750000 5.06856473750000 
 N -2.47873074375000 2.07653158750000 4.58533373750000 
 N -2.18781574375000 5.10302358750000 4.87513073750000 
 N -4.34391574375000 0.880446587500002 3.34595973750000 
 N -4.40525074375000 4.59306158750000 3.76033973750000 
 N -5.36885674375000 1.29181258750000 7.09313673750000 
 N -4.98743574375000 5.00642058750000 7.61938773750000 
 S -5.92910874375000 0.773583587500002 5.62663873750000 
 S -5.84267474375000 4.75996458750000 6.17093873750000 
 S -2.81358974375000 1.57701558750000 3.06578473750000 
 S -2.77708974375000 4.83699758750000 3.34094473750000 
 S -3.84928074375000 1.83529758750000 7.09429173750000 
 S -3.34308974375000 5.20924158750000 7.41698273750000 
