16

 C -3.39707571562500 1.52103162500000 5.51063360937500 
 C -3.13205571562500 5.69042262500000 5.63150560937500 
 C -4.48426871562500 0.921200625000001 4.84354860937500 
 C -4.16350071562500 4.97580662500000 4.93393860937500 
 N -2.29557071562500 1.61326062500000 4.71776760937500 
 N -2.18937271562500 6.09016262500000 4.79823160937500 
 N -4.27492871562500 0.488974625000001 3.60702160937500 
 N -3.98877571562500 4.78141762500000 3.62790360937500 
 N -5.10972571562500 1.20305762500000 7.29073160937500 
 N -4.88608771562500 5.07614862500000 7.44740160937500 
 S -5.85744771562500 0.776615625000001 5.85639660937500 
 S -5.45434571562500 4.55850762500000 6.00536460937500 
 S -2.70068071562500 0.999557625000000 3.21231460937500 
 S -2.57078771562500 5.47257162500000 3.27895760937500 
 S -3.50378571562500 1.51756662500000 7.21039060937500 
 S -3.33154471562500 5.77391962500000 7.37948160937500 
