16

 C -3.18323827187500 1.17758314687500 5.53066152500000 
 C -3.33320427187500 4.98433614687500 5.52225352500000 
 C -4.42303327187500 0.902057146874999 4.88273552500000 
 C -4.51946027187500 4.45926014687500 4.85369752500000 
 N -2.15525527187500 1.38787514687500 4.73420252500000 
 N -2.34670827187500 5.26195814687500 4.64356352500000 
 N -4.29170727187500 0.883025146875000 3.58841252500000 
 N -4.40373927187500 4.45694414687500 3.53192252500000 
 N -4.93478727187500 1.23015014687500 7.43467552500000 
 N -5.21608727187500 4.68051614687500 7.29628152500000 
 S -5.73859027187500 0.889716146875000 6.01553852500000 
 S -5.79950127187500 4.14039414687500 5.89627852500000 
 S -2.74015627187500 1.16457114687500 3.23157752500000 
 S -2.93784027187500 4.97156514687500 3.10717552500000 
 S -3.28778527187500 1.62100414687500 7.23187552500000 
 S -3.58953127187500 5.14204314687500 7.31181752500000 
