16

 C -3.28704159062500 1.41885982500000 5.67707338125000 
 C -3.55267959062500 5.29363582500000 5.48437538125000 
 C -4.46037859062500 0.872126824999999 5.00201038125000 
 C -4.66280959062500 4.59488082500000 4.87029838125000 
 N -2.37515659062500 1.81767682500000 4.83224138125000 
 N -2.53803559062500 5.59442682500000 4.74043538125000 
 N -4.36191459062500 0.808277824999999 3.67840838125000 
 N -4.45031859062500 4.46255382500000 3.59049438125000 
 N -4.86831059062500 0.987418824999999 7.57496338125000 
 N -5.33722659062500 4.91340582500000 7.30213638125000 
 S -5.72661659062500 0.537361824999999 6.14042538125000 
 S -5.91472459062500 4.14932982500000 5.95431738125000 
 S -2.85127959062500 1.30256382500000 3.29716538125000 
 S -2.97112059062500 5.08267482500000 3.24277438125000 
 S -3.29296959062500 1.56008182500000 7.39248338125000 
 S -3.79974259062500 5.54661282500000 7.18641838125000 
