16

 C -3.22750753750000 1.56210672812500 5.59620274687500 
 C -2.99208753750000 5.38702172812500 5.58470674687500 
 C -4.38709053750000 1.30066872812500 4.79187574687500 
 C -4.24111153750000 5.03904672812500 5.00945774687500 
 N -2.13616653750000 1.85120872812500 4.90226474687500 
 N -1.98249353750000 5.42578172812500 4.68266874687500 
 N -4.20466253750000 1.20645072812500 3.47136274687500 
 N -4.21493653750000 4.79632472812500 3.71026674687500 
 N -5.02617653750000 0.688239728125003 7.19700774687500 
 N -4.78849053750000 5.09374972812500 7.48109974687500 
 S -5.70150253750000 0.752467728125003 5.73366574687500 
 S -5.65302253750000 4.91083672812500 6.04716674687500 
 S -2.63715553750000 1.72366872812500 3.27213374687500 
 S -2.66644753750000 4.99146472812500 3.18232174687500 
 S -3.47807953750000 1.31850772812500 7.33037974687500 
 S -3.16334853750000 5.50366872812500 7.31695874687500 
