16

 C -3.14965639687500 1.42802746562500 5.64636065937500 
 C -2.87411439687500 5.24632946562500 5.45362065937500 
 C -4.45148139687500 1.12727646562500 5.01683565937500 
 C -4.08359739687500 4.86777346562500 4.81749965937500 
 N -2.10426739687500 1.52102946562500 4.88656465937500 
 N -1.84247339687500 5.37111746562500 4.58314265937500 
 N -4.32742139687500 1.09868846562500 3.69865665937500 
 N -4.11227739687500 4.75375646562500 3.46932665937500 
 N -4.82508839687500 1.56249846562500 7.54492665937500 
 N -4.71103339687500 5.08770346562500 7.35253865937500 
 S -5.68835339687500 0.868549465625003 6.24131465937500 
 S -5.39870439687500 4.55833746562500 5.85494765937500 
 S -2.69861139687500 1.44874646562500 3.30292865937500 
 S -2.59576039687500 5.14078246562500 3.04614165937500 
 S -3.19299739687500 1.79925546562500 7.33665765937500 
 S -3.06003739687500 5.38773346562500 7.22989365937500 
