16

 C -3.25141710312500 1.54638877812500 5.33140607812500 
 C -3.00518210312500 5.07701277812500 5.43957707812500 
 C -4.42527210312500 1.00882577812500 4.63693907812500 
 C -4.29020510312500 4.96958777812500 4.77105307812500 
 N -2.23173010312500 1.72067677812500 4.49671707812500 
 N -1.99707610312500 5.11452177812500 4.58536507812500 
 N -4.30607210312500 0.895787778124997 3.31609007812500 
 N -4.23879710312500 5.07400177812500 3.44218407812500 
 N -5.02549610312500 1.21698777812500 7.18078707812500 
 N -4.87240810312500 4.89911677812500 7.23938207812500 
 S -5.72082310312500 0.801632778124997 5.69932707812500 
 S -5.72283510312500 4.80464777812500 5.78121207812500 
 S -2.79738810312500 1.44348277812500 2.99774707812500 
 S -2.65925510312500 5.14786077812500 3.03567807812500 
 S -3.36575510312500 1.58320277812500 7.09924507812500 
 S -3.16325910312500 4.84241077812500 7.14864407812500 
