16

 C -3.12569735312499 1.27520595312500 5.51212456875000 
 C -3.27800435312499 5.04696395312500 5.48598956875000 
 C -4.39277635312499 1.07270895312500 4.85759456875000 
 C -4.50918935312500 4.66786195312500 4.82860756875000 
 N -2.05808335312499 1.24227395312500 4.69483856875000 
 N -2.21388035312499 4.96442895312500 4.65791856875000 
 N -4.31996135312500 0.867239953125000 3.53485656875000 
 N -4.37600435312500 4.41871995312500 3.53312356875000 
 N -4.99813435312499 1.39465995312500 7.36851656875000 
 N -5.00930935312500 5.11554395312500 7.32557956875000 
 S -5.73141435312500 1.47600295312500 5.89763556875000 
 S -5.82165735312499 4.46549195312500 5.99277456875000 
 S -2.64605535312499 0.977107953125000 3.20795056875000 
 S -2.71282835312500 4.51697895312500 3.18514356875000 
 S -3.31598735312499 1.43591195312500 7.29805856875000 
 S -3.41609335312500 5.57698695312500 7.11262856875000 
