16

 C -3.14498678125000 1.37645087812499 5.37280924375000 
 C -3.40177178125000 5.26022687812499 5.30654124375000 
 C -4.43726778125000 1.00888287812499 4.84128824375000 
 C -4.59903278125000 4.61357387812499 4.79632424375000 
 N -2.16892178125000 1.52802687812499 4.49573424375000 
 N -2.45996378125000 5.59215387812499 4.41777524375000 
 N -4.44369178125000 0.765358878124993 3.48898324375000 
 N -4.55397278125000 4.31896687812499 3.49453624375000 
 N -4.62554378125000 1.21935387812499 7.37323424375000 
 N -4.81637078125000 4.59940087812499 7.42421324375000 
 S -5.61883778125000 0.926846878124993 6.09073724375000 
 S -5.73098278125000 4.21983087812499 6.04997424375000 
 S -2.76690878125000 0.912073878124994 3.06296924375000 
 S -3.06660078125000 4.94105387812499 2.96468624375000 
 S -3.05046578125000 1.55793187812499 7.08338424375000 
 S -3.34150778125000 5.23638487812499 7.11221524375000 
