16

 C -3.32732278437500 1.63939393437500 5.79431153750000 
 C -3.08687378437500 5.34058093437500 5.84005653750000 
 C -4.46089778437500 1.08845793437500 5.04449953750000 
 C -4.27791878437500 4.82077893437500 5.21779653750000 
 N -2.23443878437500 1.80665193437500 5.05991453750000 
 N -2.06667878437500 5.43237993437500 5.01413853750000 
 N -4.30549078437500 1.00961993437500 3.71679953750000 
 N -4.20403278437500 4.56219893437500 3.94318653750000 
 N -5.04563178437500 1.23768893437500 7.67717653750000 
 N -4.78646178437500 4.91683993437500 7.70818653750000 
 S -5.75579978437500 0.743805934374999 6.24808753750000 
 S -5.49758978437500 4.33531893437500 6.32612253750000 
 S -2.58370478437500 1.29961793437500 3.53627953750000 
 S -2.62466378437500 4.91272293437500 3.53265253750000 
 S -3.48473878437500 1.89042193437500 7.46718653750000 
 S -3.33983578437500 5.53521093437500 7.57400153750000 
