16

 C -3.03654803125000 1.33967020000000 5.73623896250000 
 C -3.19131003125000 5.07039520000000 5.42120896250000 
 C -4.14776703125000 0.618521199999998 5.12827096250000 
 C -4.38065003125000 4.50073620000000 4.84931296250000 
 N -2.00749203125000 1.43929320000000 4.90099396250000 
 N -2.14649603125000 5.16178920000000 4.58627596250000 
 N -3.94912003125000 0.258397199999998 3.87954796250000 
 N -4.26882503125000 4.23379720000000 3.54108696250000 
 N -4.78478503125000 0.830389199999998 7.56173596250000 
 N -4.94253103125000 4.91420720000000 7.34687596250000 
 S -5.48266803125000 0.319999199999998 6.15870996250000 
 S -5.67520903125000 4.27087820000000 5.97246096250000 
 S -2.42662203125000 0.797520199999998 3.40689496250000 
 S -2.68176903125000 4.56571220000000 3.13030496250000 
 S -3.24952503125000 1.52203120000000 7.47349296250000 
 S -3.23770203125000 5.15464220000000 7.23767896250000 
