16

 C -3.09864342812500 1.55894378125000 5.64308603437500 
 C -3.21261342812500 4.90139578125000 5.46865603437500 
 C -4.39243442812500 1.31214478125000 5.05901503437500 
 C -4.45769942812500 4.69258178125000 4.77166903437500 
 N -2.10739242812500 1.59866378125000 4.75676603437500 
 N -2.14358942812500 4.93376878125000 4.65202503437500 
 N -4.43096542812500 1.16307978125000 3.73140303437500 
 N -4.33024042812500 4.65435878125000 3.43537103437500 
 N -4.79519742812500 1.64596378125000 7.58846703437500 
 N -5.01240642812500 4.85440778125000 7.33251203437500 
 S -5.68366142812500 1.23516578125000 6.20882303437500 
 S -5.82252942812500 4.57189678125000 5.89379403437500 
 S -2.94401342812500 1.42214478125000 3.28414803437500 
 S -2.75855042812500 4.85886778125000 3.10289403437500 
 S -3.15138142812500 1.81086778125000 7.35615303437500 
 S -3.37930742812500 5.06786578125000 7.20573603437500 
