16

 C -3.40355318125000 1.35742495625000 5.45605906562500 
 C -3.21543818125000 5.03141295625000 4.99138506562500 
 C -4.37488718125000 0.525415956250001 4.84387306562500 
 C -4.33436618125000 4.47111895625000 4.28159106562500 
 N -2.52357018125000 1.81881695625000 4.58776406562500 
 N -2.14794618125000 5.30649995625000 4.26026006562500 
 N -4.20041618125000 0.349760956250001 3.54525406562500 
 N -4.15465318125000 4.44567595625000 2.99129806562500 
 N -5.11471718125000 0.797927956250001 7.19853306562500 
 N -4.81176618125000 4.32974695625000 6.84262906562500 
 S -5.74258118125000 0.186263956250000 5.81818606562500 
 S -5.56712518125000 3.82707895625000 5.44954206562500 
 S -2.84270318125000 1.14745195625000 3.10045206562500 
 S -2.63071718125000 5.04840795625000 2.63794806562500 
 S -3.59738018125000 1.46288195625000 7.13307106562500 
 S -3.38161418125000 5.23648095625000 6.67182506562500 
