16

 C -3.10300888750000 1.43369263437500 5.50356131562500 
 C -2.97467088750000 4.89950163437500 5.29663831562500 
 C -4.30466388750000 0.936652634375000 4.84256031562500 
 C -4.30442188750000 4.68006563437500 4.69940731562500 
 N -2.02314788750000 1.59751963437500 4.71385331562500 
 N -1.97802488750000 4.70981563437500 4.46510831562500 
 N -4.14769588750000 0.785615634375000 3.51132631562500 
 N -4.24123188750000 4.54326263437500 3.39046231562500 
 N -4.83775488750000 1.33491063437500 7.40973431562500 
 N -4.68596288750000 5.24055763437500 7.21550631562500 
 S -5.58448788750000 0.903786634375000 5.99126531562500 
 S -5.58193888750000 4.91753263437500 5.84228231562500 
 S -2.54303288750000 1.06618363437500 3.16980631562500 
 S -2.59469288750000 4.51890563437500 2.96070631562500 
 S -3.27915488750000 1.86426463437500 7.24402331562500 
 S -3.02604188750000 5.32307763437500 7.02425431562500 
