16

 C -3.11342184062500 1.50622692499999 5.64184045937500 
 C -3.12805384062500 4.86414692500000 5.49027245937500 
 C -4.44010284062500 1.31400792499999 5.13537045937500 
 C -4.42243184062500 4.65068092500000 4.86554145937500 
 N -2.19353284062500 1.68156892500000 4.69640845937500 
 N -2.11641084062500 5.09819092499999 4.65208445937500 
 N -4.49603884062500 1.21230292500000 3.82421545937500 
 N -4.35953784062500 4.61759292500000 3.55663045937500 
 N -4.75792284062500 1.65257392500000 7.61742645937500 
 N -4.98179684062500 4.76606192499999 7.29392945937500 
 S -5.66766684062500 1.31750192499999 6.24986045937500 
 S -5.80853584062500 4.56476592500000 5.90455745937500 
 S -2.90034484062500 1.49110792500000 3.21164445937500 
 S -2.77519284062500 4.89533592500000 3.09624345937500 
 S -3.11828084062500 1.76183692500000 7.33856445937500 
 S -3.34050884062500 4.98023792499999 7.24456345937500 
