16

 C -3.12238954375000 1.57045024375000 5.46810433125000 
 C -3.21180254375000 5.26215124375000 5.94373033125000 
 C -4.30706454375000 1.07002924375000 4.82190233125000 
 C -4.45586854375000 4.99911924375000 5.31920933125000 
 N -2.19726854375000 1.91831824375000 4.55402133125000 
 N -2.16614254375000 5.33064524375000 5.14001033125000 
 N -4.25475454375000 0.972522243749999 3.48300033125000 
 N -4.31267554375000 4.88360824375000 3.98781533125000 
 N -4.94324154375000 0.980935243749999 7.24918233125000 
 N -4.84303254375000 5.13235824375000 7.89611033125000 
 S -5.67940454375000 0.680067243749999 5.78737133125000 
 S -5.80370954375000 4.95715624375000 6.48542333125000 
 S -2.75170954375000 1.40273324375000 3.08129333125000 
 S -2.67114154375000 5.04681224375000 3.63412533125000 
 S -3.37548254375000 1.42628924375000 7.23613433125000 
 S -3.20115754375000 5.38939324375000 7.64963233125000 
