16

 C -3.10876219062500 1.21676935625000 5.67172583750000 
 C -3.02579119062500 4.83384035625000 5.55518083750000 
 C -4.41001519062500 0.831307356249998 5.09498083750000 
 C -4.31206819062500 4.53971535625000 4.93682383750000 
 N -2.18452719062500 1.23722435625000 4.74115883750000 
 N -1.99329119062500 4.85478035625000 4.73380083750000 
 N -4.38197919062500 0.490469356249998 3.77733383750000 
 N -4.20601419062500 4.09429835625000 3.70056883750000 
 N -4.78072819062500 1.27171235625000 7.64376583750000 
 N -4.83231519062500 4.84622635625000 7.44076783750000 
 S -5.68318519062500 0.842407356249998 6.25896283750000 
 S -5.59327319062500 4.37040935625000 6.10011283750000 
 S -2.79544319062500 0.802558356249998 3.28766783750000 
 S -2.62838419062500 4.38154535625000 3.27025083750000 
 S -3.20151919062500 1.67634035625000 7.43408783750000 
 S -3.24510019062500 5.19941435625000 7.25926283750000 
