16

 C -2.83141167812500 1.30966955000000 5.78410840937500 
 C -3.08522667812500 4.79715655000000 5.46784340937500 
 C -4.06439967812500 0.753106550000000 5.18206040937500 
 C -4.35768967812500 4.46942155000000 4.87932340937500 
 N -1.85030967812500 1.39245455000000 4.90891340937500 
 N -2.05830467812500 4.92079855000000 4.62855140937500 
 N -3.82412067812500 0.282164550000000 3.93757740937500 
 N -4.27399067812500 4.20192855000000 3.57402440937500 
 N -4.59744667812500 1.55483255000000 7.56983340937500 
 N -4.82448967812500 5.02140155000000 7.42000640937500 
 S -5.44374067812500 0.862000550000000 6.28050640937500 
 S -5.70287067812500 4.66039355000000 6.01731240937500 
 S -2.30575267812500 0.790273550000000 3.46404340937500 
 S -2.69073267812500 4.47539755000000 3.15102840937500 
 S -2.98591367812500 1.92955955000000 7.37912040937500 
 S -3.18821467812500 5.29668955000000 7.07399140937500 
