16

 C -3.09687673750000 1.57895630937500 5.64250582500000 
 C -3.22814373750000 4.91319430937500 5.46238282500000 
 C -4.40215473750000 1.29713430937500 5.05095382500000 
 C -4.46310573750000 4.70458730937500 4.75309582500000 
 N -2.08940773750000 1.58190330937500 4.75147182500000 
 N -2.15559973750000 4.90218030937500 4.65598582500000 
 N -4.42456773750000 1.15882330937500 3.70753382500000 
 N -4.34443673750000 4.65855830937500 3.41585582500000 
 N -4.80979773750000 1.63846830937500 7.57347982500000 
 N -5.02205373750000 4.87273330937500 7.34111782500000 
 S -5.68757373750000 1.21960830937500 6.20764682500000 
 S -5.82246873750000 4.57336830937500 5.88542882500000 
 S -2.93430873750000 1.40412930937500 3.29589382500000 
 S -2.74651473750000 4.84945430937500 3.10911482500000 
 S -3.16015273750000 1.81975230937500 7.36470582500000 
 S -3.38523873750000 5.08816230937500 7.19046482500000 
