16

 C -3.02316839375000 1.58937116875000 5.42941529375000 
 C -3.18855439375000 5.13001916875000 5.59889229375000 
 C -4.26456439375000 1.23280516875000 4.85535929375000 
 C -4.47290739375000 4.87487716875000 4.94042029375000 
 N -2.06404239375000 1.61736616875000 4.53255729375000 
 N -2.15461339375000 5.32088016875000 4.78376529375000 
 N -4.21136239375000 0.864735168749998 3.59863629375000 
 N -4.33589539375000 4.72100416875000 3.65479729375000 
 N -4.59116539375000 1.32299416875000 7.35412729375000 
 N -4.97891439375000 4.70678816875000 7.38762229375000 
 S -5.57179139375000 1.07475116875000 6.00677029375000 
 S -5.76140439375000 4.34140816875000 6.01465229375000 
 S -2.67038339375000 1.18193916875000 3.06056729375000 
 S -2.78007939375000 5.00237916875000 3.21080529375000 
 S -3.03127739375000 1.88750316875000 7.13208929375000 
 S -3.40171739375000 5.10475016875000 7.31732729375000 
