16

 C -3.33175731875000 1.35929383125000 5.56046271875000 
 C -2.91113631875000 5.25818183125000 5.46363471875000 
 C -4.42383731875000 0.649318831250000 4.95252871875000 
 C -4.15807231875000 4.91903783125000 4.81548471875000 
 N -2.36407731875000 1.70761283125000 4.73607071875000 
 N -1.85055831875000 5.35988983125000 4.59735671875000 
 N -4.30531631875000 0.410401831250001 3.67164871875000 
 N -4.13283531875000 4.81135683125000 3.47108471875000 
 N -5.14428831875000 1.23025283125000 7.41048771875000 
 N -4.70901031875000 5.09563383125000 7.32573371875000 
 S -5.72160431875000 0.308665831250001 6.15902371875000 
 S -5.46148331875000 4.72386883125000 5.94245671875000 
 S -2.79595431875000 1.01565483125000 3.25347871875000 
 S -2.56898831875000 5.02932583125000 3.07928971875000 
 S -3.57562731875000 1.86110083125000 7.16319571875000 
 S -3.14590131875000 5.39231083125000 7.20234371875000 
