16

 C -2.81397963125000 1.29055404375000 5.35478195937500 
 C -3.20272863125000 4.92358304375000 5.37418995937500 
 C -4.06690263125000 0.791248043749999 4.81047595937500 
 C -4.40238863124999 4.43149004375000 4.87296395937500 
 N -1.99639763125000 1.46633804375000 4.33330695937500 
 N -2.29337563125000 5.21826704375000 4.49292295937500 
 N -4.16886463125000 0.703873043749999 3.51388395937500 
 N -4.37290963125000 4.33100904375000 3.53200795937500 
 N -4.51754163124999 1.24635804375000 7.29903995937500 
 N -4.85470463125000 5.01767104375000 7.38734595937500 
 S -5.35557063125000 0.866714043749999 5.95108595937500 
 S -5.60763463125000 4.21412104375000 6.12410995937500 
 S -2.72766463125000 1.05098404375000 2.90649095937500 
 S -2.90282963125000 4.94288004375000 3.02747795937500 
 S -2.93679963125000 1.74262404375000 7.10523195937500 
 S -3.22243563125000 5.44624904375000 7.02969395937500 
