16

 C -3.08986706562500 1.27360929687500 5.73011910625000 
 C -3.06382906562500 4.60329829687500 5.42084710625000 
 C -4.36288606562500 0.933824296875004 5.11798410625000 
 C -4.27262706562500 4.15608429687500 4.79109110625000 
 N -2.10807906562500 1.36386829687500 4.83768910625000 
 N -2.00860006562500 4.71756229687500 4.59985510625000 
 N -4.35825106562500 0.728788296875003 3.80049410625000 
 N -4.07502206562500 3.89513629687500 3.49853410625000 
 N -4.84164406562500 1.14867429687500 7.61063010625000 
 N -4.86065806562500 4.69460629687500 7.24208710625000 
 S -5.72416006562500 0.819230296875004 6.24424210625000 
 S -5.63228706562500 4.01434529687500 5.90144210625000 
 S -2.76593006562500 0.972103296875003 3.40611810625000 
 S -2.49317106562500 4.30976629687500 3.12106610625000 
 S -3.21173306562500 1.63470029687500 7.45258610625000 
 S -3.23693206562500 4.97949629687500 7.05813110625000 
