16

 C -3.09554518750000 1.55109248750000 5.43481215000000 
 C -3.07667518750000 5.19650048750000 5.47430115000000 
 C -4.35510018750000 1.29981648750000 4.75663515000000 
 C -4.32867718750000 4.92186448750000 4.82513315000000 
 N -2.05444018750000 1.70164148750000 4.61250715000000 
 N -2.03183018750000 5.42416948750000 4.68318315000000 
 N -4.31503818750000 1.37327548750000 3.43028715000000 
 N -4.21000318750000 4.91842448750000 3.47722815000000 
 N -4.92895718750000 1.35275848750000 7.27668615000000 
 N -4.71438018750000 4.91736948750000 7.39496515000000 
 S -5.72227618750000 1.28616948750000 5.85887415000000 
 S -5.57802718750000 4.69254748750000 6.00669315000000 
 S -2.74606018750000 1.55770348750000 3.04862415000000 
 S -2.62106718750000 5.27741948750000 3.15649315000000 
 S -3.26756218750000 1.59244048750000 7.20171215000000 
 S -3.05800818750000 5.07755848750000 7.21538115000000 
