16

 C -2.82180035937500 1.45928352500000 5.84294582187500 
 C -3.39790335937500 5.34628352500000 5.60203882187500 
 C -4.11024235937500 1.37966652500000 5.21923682187500 
 C -4.64393035937500 4.97432652500000 4.93907382187500 
 N -1.83639235937500 1.41988252500000 4.96250782187500 
 N -2.33970935937500 5.52183352500000 4.82025682187500 
 N -4.05250635937500 1.31632452500000 3.90021082187500 
 N -4.44706835937500 4.75628352500000 3.65134882187500 
 N -4.60093135937500 1.33046952500000 7.73713482187500 
 N -5.07525035937500 5.00821252500000 7.50703582187500 
 S -5.42959935937500 1.32106752500000 6.29143482187500 
 S -5.95527335937500 4.74187552500000 6.08679882187500 
 S -2.45158835937500 1.40016152500000 3.36961382187500 
 S -2.87882435937500 5.05136552500000 3.27604882187500 
 S -2.91614835937500 1.53494752500000 7.59223582187500 
 S -3.44502835937500 5.19942552500000 7.30473582187500 
