16

 C -3.10863475625000 1.46884274062500 5.46420265312500 
 C -3.35999875625000 5.29006374062500 5.20670265312500 
 C -4.26814975625000 0.730747740625001 4.94434365312500 
 C -4.33057075625000 4.39445674062500 4.66073565312500 
 N -2.18307875625000 1.68047174062500 4.52282765312500 
 N -2.41848475625000 5.65896774062500 4.34123665312500 
 N -4.16806375625000 0.490396740625001 3.61732965312500 
 N -4.10179775625000 4.05878074062500 3.39346165312500 
 N -4.78810575625000 1.28610874062500 7.39491965312500 
 N -5.22094275625000 4.92723874062500 7.01166665312500 
 S -5.53350375625000 0.620160740625002 6.10981565312500 
 S -5.71131975625000 4.11175674062500 5.64174865312500 
 S -2.71058775625000 1.03807674062500 3.07580965312500 
 S -2.75384175625000 4.76962374062500 2.97172665312500 
 S -3.23108875625000 1.75399574062500 7.13955965312500 
 S -3.69261475625000 5.66650374062500 6.89626265312500 
