16

 C -3.14910898437500 1.45641842187500 5.32335090937500 
 C -3.13066598437500 5.25279342187500 5.52990990937500 
 C -4.38570798437500 0.979042421875004 4.62061590937500 
 C -4.40396198437500 4.75123642187500 4.95987990937500 
 N -2.17503698437500 1.80134642187500 4.44996890937500 
 N -2.10708798437500 5.34159042187500 4.70896390937500 
 N -4.32013698437500 0.985816421875004 3.28857490937500 
 N -4.32590698437500 4.60771742187500 3.64221090937500 
 N -4.73716098437500 0.534379421875004 7.20022390937500 
 N -4.65000398437500 5.01090742187500 7.53177090937500 
 S -5.54726898437500 0.313728421875004 5.72858590937500 
 S -5.58376198437500 4.45940142187500 6.23260090937500 
 S -2.84872198437500 1.57705842187500 2.88354290937500 
 S -2.73605598437500 4.94142242187500 3.22803590937500 
 S -3.27152598437500 1.35596942187500 7.07369190937500 
 S -3.12623998437500 5.59259742187500 7.23917390937500 
