16

 C -3.41951339687500 1.28853761562500 5.46458336250000 
 C -3.32399839687500 5.16823461562500 5.84618236250000 
 C -4.55012239687500 0.833522615625000 4.73923236250000 
 C -4.48673039687500 4.69966461562500 5.17793136250000 
 N -2.37769539687500 1.61485861562500 4.69193736250000 
 N -2.26755439687500 5.26384661562500 4.99283736250000 
 N -4.49150639687500 0.964072615625001 3.38837136250000 
 N -4.47485939687500 4.76640961562500 3.83241436250000 
 N -5.26876939687500 0.963333615625000 7.15000736250000 
 N -4.99983039687500 4.81924761562500 7.71088336250000 
 S -5.92077839687500 0.405336615625001 5.73314236250000 
 S -5.74238039687500 4.36877561562500 6.28334836250000 
 S -2.94073039687500 1.29495561562500 3.09181836250000 
 S -2.87358939687500 5.10978461562500 3.46638136250000 
 S -3.60930439687500 1.36172461562500 7.15891536250000 
 S -3.41450139687500 5.23429561562500 7.60214036250000 
