16

 C -2.80194674062500 1.35872819687499 5.34073266250000 
 C -3.11976074062500 5.04471319687499 5.43364366250000 
 C -4.08689174062500 0.865279196874993 4.79558066250000 
 C -4.29445474062500 4.48139319687499 4.86348866250000 
 N -1.89323274062500 1.53345719687499 4.43909166250000 
 N -2.13274574062500 5.23614519687499 4.60856266250000 
 N -4.11054374062500 0.613664196874992 3.50653366250000 
 N -4.30782674062500 4.28632319687499 3.52326966250000 
 N -4.45489274062500 1.15930819687499 7.31566966250000 
 N -4.85641074062500 4.98261319687499 7.34210466250000 
 S -5.39209774062500 0.748692196874992 5.99320066250000 
 S -5.60451974062500 4.28583019687499 6.08996666250000 
 S -2.57134074062500 1.17792519687499 2.95565466250000 
 S -2.72286174062500 4.81000719687499 3.07974666250000 
 S -2.93067574062500 1.77467019687499 6.95861766250000 
 S -3.27274474062500 5.46984419687499 7.14316366250000 
