16

 C -3.06486450312500 1.49201872187500 5.52354403437500 
 C -3.11924650312500 5.02656572187500 5.19218803437500 
 C -4.25671050312500 0.898824721874999 5.03084603437500 
 C -4.36303750312500 4.53900372187500 4.64940903437500 
 N -2.01635750312500 1.47270872187500 4.69794703437500 
 N -2.05358550312500 5.00732172187500 4.40599403437500 
 N -4.09344650312500 0.514248721874999 3.76076203437500 
 N -4.20029250312500 4.04404672187500 3.42848803437500 
 N -4.70467550312500 1.30915972187500 7.58735003437500 
 N -4.89234650312500 5.14332372187500 7.09843903437500 
 S -5.57014650312500 0.782938721874999 6.21825503437500 
 S -5.64280950312500 4.36173272187500 5.86278703437500 
 S -2.55566350312500 0.867473721874999 3.25996803437500 
 S -2.59417750312500 4.25625272187500 3.03344603437500 
 S -3.12912250312500 1.81896872187500 7.24269503437500 
 S -3.30446950312500 5.39322172187500 6.92113203437500 
