16

 C -3.43663564687500 1.39258431875000 5.47815912187500 
 C -3.12970364687500 4.88032131875000 5.00682112187500 
 C -4.47099964687500 0.636874318749997 4.80975412187500 
 C -4.31709864687500 4.42156631875000 4.33184012187500 
 N -2.49078664687500 1.73662431875000 4.62530812187500 
 N -2.10066364687500 5.15256931875000 4.21314012187500 
 N -4.24004664687500 0.397634318749996 3.53160812187500 
 N -4.22881164687500 4.42099331875000 2.97781912187500 
 N -5.15894364687500 0.807054318749997 7.30466512187500 
 N -4.97650764687500 4.66934231875000 6.83466912187500 
 S -5.78360964687500 0.298258318749997 5.87353612187500 
 S -5.56200064687500 3.96934831875000 5.45813812187500 
 S -2.87590964687500 1.18068631875000 3.06966912187500 
 S -2.69685764687500 4.85220331875000 2.62840312187500 
 S -3.58985364687500 1.43433831875000 7.19061712187500 
 S -3.36762064687500 5.20866831875000 6.71031212187500 
