16

 C -3.51985706250000 1.32325295625000 5.50754760625000 
 C -3.01007806250000 5.17914395625000 5.41254660625000 
 C -4.53866706250000 0.588018956250000 4.74692160625000 
 C -4.20454506250000 4.82512495625000 4.70718260625000 
 N -2.44081606250000 1.61416595625000 4.81869460625000 
 N -1.92589206250000 5.04030195625000 4.63653360625000 
 N -4.16399706250000 0.318643956250000 3.48736560625000 
 N -4.07200506250000 4.44319695625000 3.42629460625000 
 N -5.36969306250000 1.01540695625000 7.30126960625000 
 N -5.01320406250000 5.30641395625000 7.01380460625000 
 S -5.89784206250000 0.198368956250000 5.87122960625000 
 S -5.71221106250000 4.86733795625000 5.57638960625000 
 S -2.68679706250000 1.05057295625000 3.31581460625000 
 S -2.42779506250000 4.54729195625000 3.17698660625000 
 S -3.86895706250000 1.68885995625000 7.15023560625000 
 S -3.37341906250000 5.51938595625000 7.15162160625000 
