16

 C -2.98839685000000 1.30015044687500 5.64964429062500 
 C -3.09350685000000 5.06666044687500 5.54169229062500 
 C -4.23101785000000 0.791094446875001 4.97641329062500 
 C -4.23289385000000 4.42657644687500 4.91796329062500 
 N -1.93535185000000 1.33449544687500 4.80494029062500 
 N -2.07245085000000 5.25773644687500 4.70876029062500 
 N -4.09504685000000 0.337534446875001 3.70350129062500 
 N -4.02393985000000 3.98295444687500 3.67777729062500 
 N -4.82529385000000 1.22172344687500 7.45218729062500 
 N -4.84763885000000 4.87648444687500 7.47122229062500 
 S -5.56454885000000 0.681310446875001 6.05490129062500 
 S -5.60744785000000 4.36431244687500 6.05891429062500 
 S -2.53693985000000 0.719458446875000 3.38639729062500 
 S -2.43902685000000 4.52204444687500 3.28039929062500 
 S -3.24663785000000 1.62061944687500 7.33446529062500 
 S -3.28286685000000 5.35016544687500 7.25195929062500 
