16

 C -3.28116922187500 1.10385764687500 5.65265650312500 
 C -3.09696322187500 5.22496964687500 5.51222850312500 
 C -4.47853622187500 0.645190646875000 4.96986650312500 
 C -4.26673422187500 4.67319564687500 4.88718450312500 
 N -2.26795122187500 1.29505664687500 4.81387250312500 
 N -2.00947622187500 5.29733664687500 4.76477950312500 
 N -4.29402622187500 0.642268646875000 3.63863450312500 
 N -4.14900822187500 4.61009264687500 3.56610150312500 
 N -5.07328822187500 0.950915646875000 7.53365650312500 
 N -4.70486222187500 4.62611064687500 7.53784950312500 
 S -5.75659822187500 0.366752646875000 6.12155050312500 
 S -5.52348722187500 4.26596564687500 6.08657350312500 
 S -2.70777522187500 0.963034646875000 3.24533650312500 
 S -2.53877122187500 4.89871864687500 3.20637950312500 
 S -3.44835122187500 1.42834464687500 7.39008850312500 
 S -3.12660722187500 5.22167564687500 7.23990750312500 
