16

 C -3.20575570312500 1.51235701875000 5.57540108437500 
 C -3.09166670312500 5.30780901875000 5.62878208437500 
 C -4.37681070312500 1.11663701875000 4.77584008437500 
 C -4.35756970312500 5.02673201875000 4.94598608437500 
 N -2.17796470312500 1.79678201875000 4.79271308437500 
 N -2.06287970312500 5.44074401875000 4.79824908437500 
 N -4.16938370312500 1.20572001875000 3.44877308437500 
 N -4.23850170312500 4.82004701875000 3.62935408437500 
 N -4.99014970312500 0.642324018749999 7.26571408437500 
 N -4.79975670312500 5.03381101875000 7.50408508437500 
 S -5.74443870312500 0.674423018749998 5.74403108437500 
 S -5.67342470312500 4.99579901875000 6.06732208437500 
 S -2.59352570312500 1.66672401875000 3.22976808437500 
 S -2.60638670312500 5.04198101875000 3.29283408437500 
 S -3.53509370312500 1.42253701875000 7.30712008437500 
 S -3.13422770312500 5.58518601875000 7.39844808437500 
