16

 C -3.00384357812500 1.49759116875000 5.69156934062500 
 C -3.12272157812500 5.16616716875000 5.77917734062500 
 C -4.12466657812500 0.911257168749999 5.03490334062500 
 C -4.35792457812500 4.84977316875000 5.08712634062500 
 N -1.93601757812500 1.76742516875000 4.91819734062500 
 N -2.04233457812500 5.28508616875000 5.02186834062500 
 N -3.99341857812500 0.724183168749998 3.71510534062500 
 N -4.21100557812500 4.88736616875000 3.75049534062500 
 N -4.90144057812500 1.43907016875000 7.51471134062500 
 N -4.89660757812500 5.16913016875000 7.65120434062500 
 S -5.56350257812500 0.756511168749999 6.17140834062500 
 S -5.67492957812500 4.80315916875000 6.17764534062500 
 S -2.44256957812500 1.20995316875000 3.41356834062500 
 S -2.59862157812500 5.09843116875000 3.45587134062500 
 S -3.35126357812500 1.96618016875000 7.36901734062500 
 S -3.26058957812500 5.58851016875000 7.48344134062500 
