16

 C -3.06329972500000 1.17527560937500 5.44001920000000 
 C -3.13543672500000 5.49133960937500 5.46741920000000 
 C -4.31781072500000 0.967293609375002 4.81968620000000 
 C -4.23382072500000 4.79319260937500 4.85213220000000 
 N -2.02387472500000 1.28188560937500 4.61272220000000 
 N -2.12902372500000 5.77100860937500 4.66131020000000 
 N -4.27958472500000 0.870731609375001 3.45145320000000 
 N -4.01273172500000 4.36303460937500 3.63676820000000 
 N -4.77848972500000 0.976685609375002 7.40319220000000 
 N -5.09003272500000 5.36638560937500 7.20769020000000 
 S -5.62325772500000 0.827102609375001 6.02438920000000 
 S -5.62903872500000 4.39197260937500 5.87329920000000 
 S -2.68176272500000 0.950414609375001 3.09723620000000 
 S -2.50160372500000 5.02948260937500 3.19025220000000 
 S -3.17565872500000 1.34615360937500 7.19726020000000 
 S -3.52640372500000 5.94271460937500 7.09470020000000 
