16

 C -3.23464447812500 1.23762380625000 5.57558278750000 
 C -3.23211847812500 4.91035280625000 5.58347178750000 
 C -4.43936347812500 0.904077806250001 4.85056778750000 
 C -4.42620247812500 4.48553480625000 4.90503778750000 
 N -2.13276047812500 1.43973580625000 4.88719078750000 
 N -2.23076547812500 5.14819780625000 4.75757578750000 
 N -4.28978047812500 0.932913806250001 3.53596478750000 
 N -4.41799547812500 4.44705480625000 3.56891178750000 
 N -4.95661447812500 1.28869380625000 7.41744478750000 
 N -5.26685947812500 4.84875380625000 7.28216778750000 
 S -5.76265147812500 0.870671806250002 6.01922778750000 
 S -5.83948147812500 4.08282480625000 5.83523378750000 
 S -2.56703447812500 1.24216580625000 3.30753278750000 
 S -2.84060947812500 4.90480780625000 3.18196978750000 
 S -3.33892447812500 1.59297580625000 7.23107178750000 
 S -3.67412547812500 5.08261180625000 7.30916578750000 
