16

 C -3.77655961250000 1.13481406562500 5.65722410625000 
 C -3.08918461250000 5.01284306562500 5.30280410625000 
 C -4.87026861250000 0.517751065624999 4.93980410625000 
 C -4.31374961250000 4.40441906562500 4.81974010625000 
 N -2.73216861250000 1.49064006562500 4.88355210625000 
 N -2.06072161250000 5.10492806562500 4.46837710625000 
 N -4.67928261250000 0.536590065624999 3.61466710625000 
 N -4.25524461250000 4.23273006562500 3.51552310625000 
 N -5.60298761250000 0.670452065624999 7.41747310625000 
 N -4.75849061250000 5.01816306562500 7.31146510625000 
 S -6.18112161250000 0.183915065624999 5.97371610625000 
 S -5.55518461250000 4.24860906562500 6.06967410625000 
 S -3.11171161250000 1.14662506562500 3.28902110625000 
 S -2.67236761250000 4.51849006562500 3.01326810625000 
 S -4.06444261250000 1.19830006562500 7.40739110625000 
 S -3.16481861250000 5.46387406562500 6.97117910625000 
