16

 C -3.15600137187500 1.40527309375000 5.55151393437500 
 C -3.36226637187500 5.14877009375000 5.43652993437500 
 C -4.34253137187500 0.943751093750005 4.87625393437500 
 C -4.56486137187500 4.80924009375001 4.70380093437500 
 N -2.12411037187500 1.63197909375000 4.74995493437500 
 N -2.32131937187500 5.48704709375000 4.66336693437500 
 N -4.17368637187500 0.675244093750004 3.58406393437500 
 N -4.41375937187500 4.72631809375001 3.37371693437500 
 N -4.95029237187500 1.24189109375000 7.47586193437500 
 N -5.09884237187500 4.77521909375000 7.27288693437500 
 S -5.66271037187500 0.628408093750005 6.09089293437500 
 S -5.85616537187500 4.44873209375000 5.82106393437500 
 S -2.58967837187500 1.26492309375000 3.15944893437500 
 S -2.81709637187500 5.20260809375000 3.10143293437500 
 S -3.33531637187500 1.60952109375001 7.29141693437500 
 S -3.51982837187500 5.26647809375001 7.15803093437500 
