16

 C -2.94289841562500 1.42471813750000 5.55505323437500 
 C -3.03065141562500 5.11888013750000 5.14222123437500 
 C -4.12861441562500 0.939082137500002 4.85115523437500 
 C -4.33763541562500 4.78005213750000 4.58510723437500 
 N -1.90480741562500 1.43054413750000 4.77523823437500 
 N -1.98842941562500 4.98460013750000 4.29745323437500 
 N -3.99232441562500 0.708752137500001 3.56318223437500 
 N -4.31494041562500 4.68602913750000 3.25531923437500 
 N -4.89422741562500 1.47206613750000 7.22973723437500 
 N -4.74648641562500 5.10550513750000 7.18375823437500 
 S -5.51740741562500 0.896009137500001 5.82877423437500 
 S -5.61256841562500 4.80720613750000 5.75273623437500 
 S -2.31520741562500 0.957989137500001 3.28472023437500 
 S -2.68283841562500 4.66340213750000 2.79243923437500 
 S -3.26504441562500 1.73235213750000 7.29403123437500 
 S -3.08542641562500 5.32554013750000 6.92353823437500 
