16

 C -3.22286904375000 0.876481918749998 5.45088287187500 
 C -3.22722604375000 4.96313391875000 5.69226987187500 
 C -4.41324704375000 0.537815918749998 4.67093287187500 
 C -4.43614404375000 4.49536891875000 5.11387587187500 
 N -2.19759204375000 1.33151891875000 4.74491687187500 
 N -2.22938704375000 5.03920591875000 4.83900387187500 
 N -4.28921804375000 0.848871918749999 3.35928387187500 
 N -4.38559204375000 4.40287091875000 3.77867587187500 
 N -5.08568504375000 0.613562918749999 7.20136487187500 
 N -4.98545804375000 4.93426491875000 7.57722787187500 
 S -5.82360304375000 0.218895918749999 5.75576787187500 
 S -5.78966604375000 4.24504291875000 6.26815587187500 
 S -2.71438004375000 1.32743891875000 3.15644087187500 
 S -2.83501604375000 4.73751791875000 3.32234487187500 
 S -3.45103904375000 0.784897918749999 7.22608087187500 
 S -3.27273704375000 4.99959691875000 7.41216187187500 
