16

 C -3.15638908750000 1.42794075312500 5.57029814062500 
 C -3.00078808750000 5.32942675312500 5.88379414062500 
 C -4.33399008750000 0.932462753125000 4.87717314062500 
 C -4.13539508750000 4.79281175312500 5.15319014062500 
 N -2.10012908750000 1.70519675312500 4.81803814062500 
 N -1.92967808750000 5.55119775312500 5.12941314062500 
 N -4.22831408750000 0.916759753125000 3.52249714062500 
 N -3.93131208750000 4.58813475312500 3.85088114062500 
 N -4.85664608750000 0.978307753125001 7.42573614062500 
 N -4.80704508750000 4.85259875312500 7.63170214062500 
 S -5.70571208750000 0.709267753125000 5.96623614062500 
 S -5.55133208750000 4.79119075312500 6.17613014062500 
 S -2.65022308750000 1.36074575312500 3.28718914062500 
 S -2.37667008750000 5.11325075312500 3.55759314062500 
 S -3.27393708750000 1.48157875312500 7.29848214062500 
 S -3.19207508750000 5.28996775312500 7.60080414062500 
