16

 C -3.27374215625000 1.14970390625000 5.52708378750000 
 C -3.19039015625000 5.48480790625000 5.71151478750000 
 C -4.46000115625000 0.666670906250000 4.86558178750000 
 C -4.26046015625000 4.79271490625000 5.04016278750000 
 N -2.26983015625000 1.37802990625000 4.73505078750000 
 N -2.24006515625000 5.93763090625000 4.93846778750000 
 N -4.38841915625000 0.585739906250001 3.54835678750000 
 N -4.13987815625000 4.84465590625000 3.72563578750000 
 N -4.99523415625000 0.761697906250000 7.34994878750000 
 N -4.82061015625000 4.64616590625000 7.56723178750000 
 S -5.74070915625000 0.506426906250001 5.93829978750000 
 S -5.58205515625000 4.37088390625000 6.05467178750000 
 S -2.93610015625000 1.16545490625000 3.16138078750000 
 S -2.68478715625000 5.54214690625000 3.39419678750000 
 S -3.39558015625000 1.24036090625000 7.28636078750000 
 S -3.28970515625000 5.36337990625000 7.47895978750000 
