16

 C -3.14932648437500 1.40904213125000 5.76538752812500 
 C -2.96459248437500 4.96868113125000 5.53449752812500 
 C -4.48607248437500 1.06747013125000 5.30586652812500 
 C -4.24810448437500 4.80083913125000 4.87868552812500 
 N -2.21725848437500 1.29276313125000 4.81038252812500 
 N -1.91423148437500 5.00170413125000 4.72361952812500 
 N -4.61517848437500 0.684947131249997 3.99731052812500 
 N -4.12288448437500 4.69026913125000 3.57368652812500 
 N -4.75902748437500 1.73790513125000 7.79285452812500 
 N -4.72654848437500 4.65937613125000 7.36654152812500 
 S -5.69735148437500 1.14718413125000 6.55903052812500 
 S -5.50333348437500 4.34309613125000 5.99743152812500 
 S -2.97662248437500 0.644969131249997 3.45474352812500 
 S -2.45749548437500 4.76136413125000 3.19299052812500 
 S -3.10849848437500 1.73064213125000 7.49914652812500 
 S -3.06589348437500 4.90280013125000 7.26316452812500 
