16

 C -3.14750651875000 1.33176561562501 5.35586526250000 
 C -3.10679651875000 4.89419661562500 5.52008026250000 
 C -4.32524051875000 0.558309615625005 4.81419326250000 
 C -4.40307351875000 4.60589261562500 4.95423826250000 
 N -2.22992351875000 1.62175961562501 4.45003426250000 
 N -2.16182351875000 4.95938961562501 4.57159026250000 
 N -4.16026451875000 0.283573615625005 3.52998426250000 
 N -4.47705051875000 4.57918861562501 3.62114126250000 
 N -4.88846751875000 1.17639561562500 7.26629426250000 
 N -4.76451651875000 4.81125461562501 7.50497826250000 
 S -5.54180751875000 0.301867615625005 6.00393826250000 
 S -5.66019451875000 4.54784461562500 6.12171926250000 
 S -2.70763651875000 0.946081615625005 3.04396626250000 
 S -2.91940951875000 4.72558461562500 3.10573826250000 
 S -3.37159751875000 1.82469061562500 6.99615126250000 
 S -3.12948251875000 5.27415061562500 7.28331726250000 
