16

 C -3.19804380000000 1.26341886875000 5.51867011875000 
 C -3.13880880000000 5.41582286875000 5.49505511875000 
 C -4.42061180000000 0.886266868749999 4.83233911875000 
 C -4.31486780000000 4.86945486875000 4.81232911875000 
 N -2.14508280000000 1.31436986875000 4.69474811875000 
 N -2.10752080000000 5.74857586875000 4.70573511875000 
 N -4.31428380000000 0.725666868749999 3.51927211875000 
 N -4.21529880000000 4.95867486875000 3.46731111875000 
 N -4.91209280000000 1.02366886875000 7.34835011875000 
 N -4.84448280000000 4.88638786875000 7.30507111875000 
 S -5.64826580000000 0.586596868749999 5.92978311875000 
 S -5.54038580000000 4.36993486875000 5.90000011875000 
 S -2.65676880000000 1.01295686875000 3.22793011875000 
 S -2.64437280000000 5.47124686875000 3.14124211875000 
 S -3.26020580000000 1.33926186875000 7.23144111875000 
 S -3.33549580000000 5.55901086875000 7.22764511875000 
