16

 C -2.99937901875000 1.63769190312500 5.44043445000000 
 C -3.09687401875000 5.18718790312500 5.65658545000000 
 C -4.28833801875000 1.34603490312500 4.92424545000000 
 C -4.22797401875000 4.67320590312500 4.94687645000000 
 N -2.04850801875000 1.86394690312500 4.53736745000000 
 N -2.04930001875000 5.52744090312500 4.91611545000000 
 N -4.26008101875000 1.16102990312500 3.61212645000000 
 N -4.02016001875000 4.59387290312500 3.64895445000000 
 N -4.46551601875000 1.23768890312500 7.39643745000000 
 N -4.84376101875000 4.78488790312500 7.44874145000000 
 S -5.53925901875000 1.19792090312500 6.08136545000000 
 S -5.62809901875000 4.48139790312500 6.03051145000000 
 S -2.63990401875000 1.32177990312500 3.12180545000000 
 S -2.47343501875000 5.08658290312500 3.40030145000000 
 S -2.87227901875000 1.64132490312500 7.11880745000000 
 S -3.26497501875000 5.33558590312500 7.33443345000000 
