16

 C -3.22877716562500 1.33760686250000 5.84426686562500 
 C -2.94915616562500 4.86303586250000 5.70328486562500 
 C -4.47794216562500 0.871849862500003 5.32054886562500 
 C -4.16745816562500 4.47713286250000 5.01478686562500 
 N -2.26391616562500 1.51926886250000 4.93956986562500 
 N -1.97892216562500 5.23745786250000 4.83548686562500 
 N -4.50652316562500 0.622518862500002 3.99486786562500 
 N -4.08813316562500 4.44858286250000 3.69212286562500 
 N -4.85213616562500 1.38897886250000 7.84846386562500 
 N -4.77912616562500 4.79406586250000 7.44551286562500 
 S -5.77860216562500 1.14187786250000 6.48598286562500 
 S -5.63070716562500 4.43643386250000 6.03420786562500 
 S -2.89966316562500 1.01270686250000 3.49772886562500 
 S -2.53897816562500 4.99091386250000 3.28790286562500 
 S -3.20892216562500 1.75017686250000 7.56107886562500 
 S -3.20496516562500 5.11042186250000 7.40551686562500 
