16

 C -3.01387420625000 1.37847205000000 5.31593894375000 
 C -3.26734220625000 5.18108905000000 5.65023394375000 
 C -4.31628620625000 0.994980050000003 4.80721394375000 
 C -4.46354920625000 4.71913405000000 4.99620694375000 
 N -2.06731120625000 1.39216205000000 4.36410694375000 
 N -2.23808120625000 5.37959705000000 4.89679294375000 
 N -4.32409320625000 0.629488050000004 3.52126494375000 
 N -4.29307120625000 4.56673605000000 3.67259994375000 
 N -4.82616920625000 1.50801705000000 7.22351094375000 
 N -4.80246320625000 4.82865705000000 7.59622294375000 
 S -5.63851720625000 1.06551605000000 5.80797794375000 
 S -5.77969520625000 4.58963805000000 6.26733494375000 
 S -2.80145820625000 0.728055050000003 2.94901094375000 
 S -2.71649020625000 4.97133105000000 3.32966294375000 
 S -3.14207620625000 1.72169005000000 7.07841494375000 
 S -3.18108220625000 5.25847405000000 7.38736194375000 
