16

 C -3.49638147187500 1.40513218125000 5.52147530000000 
 C -3.07993847187500 5.13777018125000 5.42059030000000 
 C -4.48338347187500 0.570221181250004 4.88462830000000 
 C -4.27497347187500 4.79110118125000 4.66934130000000 
 N -2.46824247187500 1.79155218125000 4.77260430000000 
 N -1.92907747187500 5.12957318125000 4.73518530000000 
 N -4.19050947187500 0.317039181250004 3.59934930000000 
 N -3.98038047187500 4.45416818125000 3.37354930000000 
 N -5.30778647187500 0.879990181250005 7.22658730000000 
 N -4.99103747187500 5.13886518125000 7.16435430000000 
 S -5.87868747187500 0.235383181250004 5.85585230000000 
 S -5.69080347187500 4.93936518125000 5.67081130000000 
 S -2.68009447187500 0.983809181250004 3.26658230000000 
 S -2.35468047187500 4.60559018125000 3.16641730000000 
 S -3.87754247187500 1.73754018125000 7.23470830000000 
 S -3.31474447187500 5.51308118125000 7.11159330000000 
