16

 C -3.07367683125000 1.77603810000000 5.33988719687500 
 C -3.53776583125000 5.07022510000000 5.12032519687500 
 C -4.11661083125000 0.973669099999999 4.80493519687500 
 C -4.57422283125000 4.21626110000000 4.56501419687500 
 N -1.95587383125000 1.84974010000000 4.62827619687500 
 N -2.47647483125000 5.18101010000000 4.34105719687500 
 N -3.80435583125000 0.477477099999998 3.57416619687500 
 N -4.41070383125000 3.85623210000000 3.29262019687500 
 N -4.70005883125000 1.22479510000000 7.28678919687500 
 N -5.45174783125000 4.96999010000000 6.85843419687500 
 S -5.52041183125000 0.707515099999998 5.91765519687500 
 S -5.94980383125000 4.10758310000000 5.54059319687500 
 S -2.33602983125000 1.12133910000000 3.14229919687500 
 S -2.88809683125000 4.46014210000000 2.87503219687500 
 S -3.34629383125000 2.20124410000000 7.01617119687500 
 S -3.88921083125000 5.49218310000000 6.82310419687500 
