16

 C -3.16033137500000 1.53832311875000 5.63177853437500 
 C -3.25934537500000 5.06102511875000 5.38166153437500 
 C -4.35821737500000 1.13286711875000 4.96605553437500 
 C -4.43666737500000 4.65608011875000 4.65606453437500 
 N -2.11496337500000 1.53653811875000 4.87366153437500 
 N -2.17851737500000 5.04165211875000 4.59194153437500 
 N -4.21118037500000 0.859692118750004 3.70933753437500 
 N -4.29561237500000 4.26428311875000 3.39095353437500 
 N -4.94405737500000 1.33060011875000 7.36930153437500 
 N -5.25241037500000 5.17708111875000 7.06768053437500 
 S -5.73963837500000 1.03030511875000 5.92127753437500 
 S -5.85383737500000 4.62970611875000 5.62655453437500 
 S -2.56200837500000 1.17417811875000 3.31802953437500 
 S -2.65426437500000 4.50539211875000 3.05832653437500 
 S -3.38611537500000 1.79355811875000 7.30610253437500 
 S -3.60720837500000 5.38927211875000 7.07155353437500 
