16

 C -3.00587990000000 1.51804006875000 5.39157100625000 
 C -3.13352490000000 5.12101406875000 5.37955400625000 
 C -4.23366190000000 1.09363806875000 4.65395200625000 
 C -4.32224890000000 4.50409306875000 4.86463400625000 
 N -1.93792290000000 1.66950406875000 4.64081000625000 
 N -2.11758590000000 5.38035206875000 4.57186400625000 
 N -4.03450490000000 1.01275106875000 3.34340600625000 
 N -4.18776890000000 4.23129106875000 3.57464900625000 
 N -4.80636090000000 1.22330406875000 7.12555200625000 
 N -4.75683490000000 4.70716306875000 7.39580800625000 
 S -5.59592990000000 1.01913906875000 5.67736300625000 
 S -5.58597690000000 4.24610306875000 6.03176700625000 
 S -2.37384890000000 1.22001406875000 3.10484900625000 
 S -2.64578690000000 4.72203506875000 3.12971800625000 
 S -3.20575390000000 1.68557406875000 7.07023300625000 
 S -3.23319090000000 5.29087506875000 7.06694000625000 
