16

 C -3.25003417812500 1.54633866875000 5.63206584062500 
 C -3.54808617812500 5.33975166875000 5.57075184062500 
 C -4.47154117812500 1.01348966875000 5.05784184062500 
 C -4.57532817812500 4.56362266875000 4.98454884062500 
 N -2.27239617812500 1.74494666875000 4.73722784062500 
 N -2.48030217812500 5.69228666875000 4.76572884062500 
 N -4.41247217812500 0.875634668750003 3.74600784062500 
 N -4.42924217812500 4.48466866875000 3.64497484062500 
 N -4.91010817812500 1.11161866875000 7.58720484062500 
 N -5.25486517812500 4.75838866875000 7.52023884062500 
 S -5.77029217812500 0.731072668750003 6.20255884062500 
 S -5.91171217812500 4.26654666875000 6.05019684062500 
 S -2.95403417812500 1.48786466875000 3.21351384062500 
 S -2.97188817812500 5.16159466875000 3.23310884062500 
 S -3.37758117812500 1.50119766875000 7.33151884062500 
 S -3.69688517812500 5.44907166875000 7.34294484062500 
