16

 C -3.21286041875000 1.43192506562500 5.65343158125000 
 C -3.35383041875000 5.12012306562500 5.38888158125000 
 C -4.38007141875000 0.809693065624998 4.93170458125000 
 C -4.55488141875000 4.69913506562500 4.75229858125000 
 N -2.15774041875000 1.68129206562500 4.83919058125000 
 N -2.30882041875000 5.42596306562500 4.61909758125000 
 N -4.17719341875000 0.765336065624998 3.60231158125000 
 N -4.42664641875000 4.80229206562500 3.44529958125000 
 N -5.06002041875000 1.19858306562500 7.38910858125000 
 N -5.10996741875000 4.85582106562500 7.30578658125000 
 S -5.70849041875000 0.601200065624998 5.99657358125000 
 S -5.89104141875000 4.41584106562500 5.89371758125000 
 S -2.63370141875000 1.18497106562500 3.35278858125000 
 S -2.85462341875000 5.17692306562500 3.08685558125000 
 S -3.46735741875000 1.60052206562500 7.36657958125000 
 S -3.50157441875000 5.27327006562500 7.08564658125000 
