16

 C -3.12075118437500 1.33674448125000 5.42659025000000 
 C -2.89306718437500 5.19430948125000 5.87742925000000 
 C -4.27636018437500 0.859317481250002 4.78758325000000 
 C -4.04925318437500 4.68591548125000 5.15207625000000 
 N -2.09017518437500 1.75625748125000 4.66801525000000 
 N -1.83536718437500 5.39630848125000 5.10601325000000 
 N -4.25995018437500 0.933349481250002 3.44939925000000 
 N -3.92457818437500 4.65769548125000 3.82682825000000 
 N -4.89865318437500 0.762166481250002 7.35528425000000 
 N -4.75988018437500 4.96458648125000 7.61135225000000 
 S -5.64142618437500 0.602808481250002 5.88180125000000 
 S -5.40928518437500 4.49556148125000 6.15436825000000 
 S -2.71125718437500 1.47471948125000 3.05938625000000 
 S -2.31112018437500 5.03132348125000 3.49528125000000 
 S -3.31679918437500 1.22877548125000 7.23705325000000 
 S -3.14452918437500 5.43276348125000 7.63829025000000 
