16

 C -3.23793309375000 1.36035824375000 5.51441838750000 
 C -3.08112709375000 5.30537024375000 5.70139738750000 
 C -4.38939109375000 0.970875243750002 4.75338338750000 
 C -4.31665409375000 5.10963024375000 5.03737338750000 
 N -2.18213909375000 1.70658524375000 4.75389438750000 
 N -1.98380509375000 5.44064124375000 4.94400338750000 
 N -4.20858809375000 0.941828243750003 3.43947338750000 
 N -4.14766509375000 4.88747624375000 3.73208038750000 
 N -5.06247809375000 0.932549243750002 7.21884638750000 
 N -4.96896509375000 5.13100124375000 7.56636238750000 
 S -5.75610709375000 0.468984243750002 5.75672738750000 
 S -5.72249009375000 5.05241524375000 6.08405238750000 
 S -2.66262609375000 1.49569524375000 3.22641338750000 
 S -2.57141309375000 5.20009024375000 3.39562238750000 
 S -3.52833209375000 1.49360524375000 7.19505538750000 
 S -3.34651309375000 5.57727624375000 7.38353738750000 
