16

 C -2.89500167812500 1.37502650625000 5.74657183750000 
 C -3.11217767812500 5.16060450625000 5.47681583750000 
 C -4.21759567812500 1.02491050625000 5.17067983750000 
 C -4.42555267812500 4.84237350625000 4.92740083750000 
 N -1.89390567812500 1.16514650625000 4.86197683750000 
 N -2.09229267812500 5.10439250625000 4.58491683750000 
 N -4.07972567812500 0.519548506250002 3.94102683750000 
 N -4.37787267812500 4.41620650625000 3.67410083750000 
 N -4.71439367812500 1.50580050625000 7.67400083750000 
 N -4.84339367812500 4.98207050625000 7.53888183750000 
 S -5.50806867812500 0.915404506250002 6.35947583750000 
 S -5.65405467812500 4.52683750625000 6.09991683750000 
 S -2.49184967812500 0.574120506250002 3.45550183750000 
 S -2.81488967812500 4.53633950625000 3.17777683750000 
 S -3.10488767812500 1.88206450625000 7.44100483750000 
 S -3.23773567812500 5.25234750625000 7.23440383750000 
