16

 C -3.31208467500000 0.850074187500005 5.46042167812500 
 C -3.27526767500000 5.18350018750000 5.49671567812500 
 C -4.51644667500000 0.570073187500005 4.75969867812500 
 C -4.44145567500000 4.64518718750000 4.77372367812500 
 N -2.23689667500000 1.13263918750001 4.70501467812500 
 N -2.20799867500000 5.40813618750000 4.67541767812500 
 N -4.38083467500000 0.622836187500004 3.42941867812500 
 N -4.32084067500000 4.57156118750000 3.45793167812500 
 N -5.12479967500000 0.735084187500004 7.22695467812500 
 N -5.00751567500000 4.51245618750000 7.28252167812500 
 S -5.89093867500000 0.580845187500005 5.77092267812500 
 S -5.74685967500000 4.05955118750000 5.81851267812500 
 S -2.78550667500000 0.929859187500004 3.13262467812500 
 S -2.79390667500000 5.08331918750001 3.12754967812500 
 S -3.48809767500000 0.895177187500004 7.19867467812500 
 S -3.57566167500000 5.35215218750000 7.22215167812500 
