16

 C -3.19202141875000 0.957282409375000 5.50875547187500 
 C -3.22924541875000 4.70949940937500 5.63251447187500 
 C -4.35852141875000 0.698442409375000 4.76482547187500 
 C -4.53334841875000 4.49127340937500 5.04343447187500 
 N -2.17723041875000 1.37201740937500 4.76943047187500 
 N -2.22257341875000 4.89258540937500 4.80049747187500 
 N -4.24739741875000 0.783131409375000 3.45228147187500 
 N -4.49669241875000 4.35124340937500 3.71582947187500 
 N -5.12270941875000 0.482587409375000 7.13434547187500 
 N -4.92071541875000 4.86512440937500 7.56694347187500 
 S -5.70922641875000 0.142238409375000 5.57833647187500 
 S -5.77889541875000 4.38825840937500 6.19104847187500 
 S -2.70817041875000 1.34295640937500 3.20917947187500 
 S -2.91603541875000 4.71869240937500 3.30897247187500 
 S -3.44498141875000 0.794541409375000 7.22345347187500 
 S -3.28011941875000 4.99050240937500 7.41861747187500 
