16

 C -3.16910479062500 1.11683377187500 5.59712205000000 
 C -3.58189779062500 4.95810777187500 5.08049505000000 
 C -4.38092879062500 0.692006771874999 4.99135605000000 
 C -4.71903979062500 4.27435677187500 4.50866105000000 
 N -2.26872379062500 1.46235477187500 4.76208005000000 
 N -2.59510779062500 5.30684777187500 4.26519805000000 
 N -4.39372279062500 0.679590771874999 3.68418205000000 
 N -4.48665479062500 3.93171677187500 3.24134105000000 
 N -4.72558979062500 0.775052771874998 7.53336905000000 
 N -5.31124179062500 4.69172777187500 6.91073805000000 
 S -5.62642879062500 0.556674771874999 6.15401605000000 
 S -5.95583179062500 3.85364377187500 5.68277205000000 
 S -2.80539679062500 1.05824277187500 3.23422105000000 
 S -3.00965179062500 4.55197877187500 2.79971805000000 
 S -3.15965479062500 1.29769877187500 7.30039005000000 
 S -3.72599879062500 5.20055377187500 6.76070105000000 
