16

 C -3.30868956250000 1.51721698750000 5.34681797812500 
 C -3.34742456250000 5.37477198750001 5.44508197812500 
 C -4.43208556250000 0.779643987500005 4.86002197812500 
 C -4.52644256250000 4.80754298750000 4.80365097812500 
 N -2.29618956250000 1.69052498750000 4.49845597812500 
 N -2.32561756250000 5.59776798750001 4.59402197812500 
 N -4.36674956250000 0.509571987500005 3.54571997812500 
 N -4.45703656250000 4.72375098750001 3.48246197812500 
 N -4.83032956250000 1.15996398750000 7.44332897812500 
 N -5.05338656250000 4.70318898750001 7.29901997812500 
 S -5.63196556250000 0.484912987500005 6.13918997812500 
 S -5.71467556250000 4.16668998750000 5.83330597812500 
 S -2.92512356250000 1.08591198750000 3.02055597812500 
 S -2.96393056250000 5.26457698750000 3.08041897812500 
 S -3.39164456250000 1.94250398750000 7.09643397812500 
 S -3.55777156250000 5.50285398750000 7.20412497812500 
