16

 C -3.06393263437500 1.22775185625000 5.68344168437500 
 C -2.93759563437500 4.84684785625000 5.47271668437500 
 C -4.34571963437500 0.893719856249999 5.02711068437500 
 C -4.19307963437500 4.40947285625000 4.87913068437500 
 N -2.08235163437500 1.33946485625000 4.81407268437500 
 N -1.93453463437500 4.94668485625000 4.61093668437500 
 N -4.26405763437500 0.730460856249999 3.72538668437500 
 N -4.07606163437500 3.91933085625000 3.64985968437500 
 N -4.76414963437500 1.25674185625000 7.56321568437500 
 N -4.71489563437500 4.96860785625000 7.40005968437500 
 S -5.60783463437500 0.839926856249999 6.22351968437500 
 S -5.53611963437500 4.31698785625000 6.09473168437500 
 S -2.61310963437500 0.910785856249999 3.31948968437500 
 S -2.51583963437500 4.30446685625000 3.15763268437500 
 S -3.14409163437500 1.56633785625000 7.39164068437500 
 S -3.13171663437500 5.32043785625000 7.07993368437500 
