16

 C -3.34711407500000 1.31132914687500 5.16370579687500 
 C -3.05108007500000 5.12614014687500 5.41862979687500 
 C -4.52295907500000 0.815140146874999 4.49807179687500 
 C -4.19844107500000 4.49696514687500 4.82591479687500 
 N -2.22042207500000 1.34201614687500 4.46414479687500 
 N -1.99574107500000 5.24397314687500 4.62387779687500 
 N -4.31720907500000 0.581123146874999 3.20044879687500 
 N -3.96183107500000 3.98992514687500 3.62819479687500 
 N -5.12537907500000 1.26895614687500 7.01412379687500 
 N -4.84362707500000 5.05617814687500 7.24158879687500 
 S -5.90676707500000 0.818088146874999 5.60519279687500 
 S -5.56781807500000 4.44999114687500 5.84985279687500 
 S -2.70258807500000 0.911306146874999 2.94728379687500 
 S -2.43664707500000 4.46255214687500 3.21127479687500 
 S -3.54183607500000 1.73261114687500 6.87191579687500 
 S -3.26551207500000 5.52638914687500 7.02387679687500 
