16

 C -2.99909317187500 1.52197350312500 5.39043790937500 
 C -3.14006717187500 5.12629950312500 5.37838290937500 
 C -4.24033417187500 1.08715950312500 4.65093990937500 
 C -4.32171917187500 4.50305450312499 4.86617790937500 
 N -1.92947617187500 1.67175750312500 4.63872490937500 
 N -2.11151017187500 5.37797950312500 4.58094290937500 
 N -4.03615917187500 1.01393850312500 3.34290190937500 
 N -4.18422117187500 4.23572950312500 3.57404390937500 
 N -4.80655017187500 1.22154950312500 7.13172490937500 
 N -4.75393717187500 4.70484050312499 7.39255790937500 
 S -5.59195017187500 1.02130650312500 5.68148790937500 
 S -5.58703917187500 4.24307950312500 6.03164690937500 
 S -2.37861917187500 1.22255950312500 3.09523390937500 
 S -2.64228917187500 4.72758050312500 3.12874090937500 
 S -3.20537917187500 1.68230350312500 7.07040190937500 
 S -3.23411217187500 5.28791650312500 7.06619890937500 
