16

 C -3.27678068437500 1.67903765937500 5.44593882812500 
 C -2.98575168437500 5.28751565937500 5.83415582812500 
 C -4.31373968437500 0.940088659375000 4.78560682812500 
 C -4.26821068437500 4.84738465937500 5.27042182812500 
 N -2.29023668437500 1.98052765937500 4.66901582812500 
 N -2.04517368437500 5.60967265937500 4.92278382812500 
 N -4.09049868437500 0.743777659375001 3.50560682812500 
 N -4.22098168437500 4.69718265937500 3.94084982812500 
 N -4.98858368437500 1.01020265937500 7.32336282812500 
 N -4.63440468437500 5.09073665937500 7.72719282812500 
 S -5.63582868437500 0.350420659375000 5.88441982812500 
 S -5.56360768437500 4.64713165937500 6.48823882812500 
 S -2.69896468437500 1.49050565937500 3.13759582812500 
 S -2.71882568437500 5.17539265937500 3.45594182812500 
 S -3.40718068437500 1.62947465937500 7.15908282812500 
 S -3.01087268437500 5.44202465937500 7.59096282812500 
