16

 C -3.10996481562500 1.57852822187500 5.49006698125000 
 C -3.48218281562500 5.09374722187500 5.56966098125000 
 C -4.22707181562500 0.938728221874999 4.74432198125000 
 C -4.65629181562500 4.48267622187500 4.96030998125000 
 N -2.05803281562500 1.89616622187500 4.73855398125000 
 N -2.61692881562500 5.50246822187500 4.65920798125000 
 N -3.98334181562500 0.864398221875000 3.42185598125000 
 N -4.57149181562500 4.26036122187500 3.64487798125000 
 N -4.80656781562500 0.883423221875000 7.29851398125000 
 N -5.17134281562500 4.62898122187500 7.48787998125000 
 S -5.59460681562500 0.687100221874999 5.85805598125000 
 S -5.93661681562500 4.12145222187500 6.08954898125000 
 S -2.48622581562500 1.55086422187500 3.16206198125000 
 S -3.11843781562500 4.87822922187500 3.16307398125000 
 S -3.40618081562500 1.83364822187500 7.22671398125000 
 S -3.79939681562500 5.49267422187500 7.21008498125000 
