16

 C -3.40139970937500 1.19968107500000 5.54101387812500 
 C -3.10714670937500 5.06911007500000 5.36239987812500 
 C -4.48897970937500 0.598992074999999 4.80779387812500 
 C -4.31265370937500 4.72419207500000 4.64399887812500 
 N -2.31605570937500 1.44284507500000 4.77946087812500 
 N -1.96410170937500 4.99404007500000 4.64390287812500 
 N -4.31246370937500 0.501272074999999 3.47756987812500 
 N -4.13932470937500 4.38034707500000 3.35982687812500 
 N -5.37957770937500 1.14711307500000 7.04643887812500 
 N -5.10897770937500 5.42920107500000 7.02735287812500 
 S -5.90569070937500 0.203364074999999 5.81551387812500 
 S -5.73295870937500 4.82189107500000 5.65957787812500 
 S -2.77079170937500 0.995924074999999 3.22616687812500 
 S -2.48433270937500 4.51410907500000 3.11705487812500 
 S -3.84788770937500 1.60667807500000 7.15929987812500 
 S -3.41114770937500 5.52644307500000 6.99984387812500 
