16

 C -3.26454528750000 1.12375778125000 5.51125912187500 
 C -2.80405428750000 5.07287378125000 5.46478612187500 
 C -4.56134128750000 0.717411781249998 4.99906112187500 
 C -4.03291128750000 4.94005778125000 4.72980612187500 
 N -2.37417028750000 1.23622878125000 4.56623812187500 
 N -1.71316028750000 5.32994578125000 4.72722012187500 
 N -4.55630028750000 0.488450781249998 3.70484412187500 
 N -3.81280228750000 4.84663778125000 3.41688112187500 
 N -4.77102028750000 1.38362578125000 7.41536112187500 
 N -4.78153628750000 5.08710578125000 7.14696512187500 
 S -5.72354828750000 0.602944781249998 6.23471412187500 
 S -5.43571428750000 4.62698578125000 5.68609912187500 
 S -3.02079528750000 0.875585781249999 3.12500912187500 
 S -2.23161628750000 5.14713578125000 3.15961212187500 
 S -3.11753328750000 1.27551778125000 7.20717612187500 
 S -3.10912828750000 5.09421278125000 7.17071212187500 
