16

 C -3.37304150625000 1.25159530000000 5.97819025000000 
 C -3.08981650625000 5.04928630000000 5.18116825000000 
 C -4.55641050625000 0.917422300000000 5.16360825000000 
 C -4.34156850625000 4.66457830000000 4.54511925000000 
 N -2.32848950625000 1.51997930000000 5.24360825000000 
 N -1.99647950625000 5.07411730000000 4.42351125000000 
 N -4.35156050625000 0.800006300000000 3.86163825000000 
 N -4.17329250625000 4.60732530000000 3.23723125000000 
 N -5.32862550625000 1.03706630000000 7.62533125000000 
 N -4.90387350625000 4.90874530000000 7.02395925000000 
 S -5.92644050625000 0.429588300000000 6.14317425000000 
 S -5.72317550625000 4.52073830000000 5.58838725000000 
 S -2.76962350625000 1.16458330000000 3.68580525000000 
 S -2.54282150625000 4.70192730000000 2.90171825000000 
 S -3.65682050625000 1.21733230000000 7.76366625000000 
 S -3.28338150625000 5.11891130000000 6.90978325000000 
