16

 C -3.43317061562500 1.26609921562500 5.94535565000000 
 C -3.12889661562500 5.00368521562500 5.23289365000000 
 C -4.60403261562500 0.882719215625003 5.17583165000000 
 C -4.35328261562500 4.80051521562500 4.50776265000000 
 N -2.30562361562500 1.47770521562500 5.21209265000000 
 N -2.06811661562500 5.12068321562500 4.41941965000000 
 N -4.36500661562500 0.812626215625003 3.84866965000000 
 N -4.18818061562500 4.51188621562500 3.20637765000000 
 N -5.35530761562500 1.04631121562500 7.61268265000000 
 N -5.00414661562500 4.93039921562500 6.99732865000000 
 S -5.98259461562500 0.498547215625003 6.16365765000000 
 S -5.74763061562500 4.51556121562500 5.56055265000000 
 S -2.73652861562500 1.19102921562500 3.64023865000000 
 S -2.56918661562500 4.71838221562500 2.84934765000000 
 S -3.68188861562500 1.25042121562500 7.69531765000000 
 S -3.32991461562500 5.21619221562500 6.93137165000000 
