16

 C -3.10232292500000 1.37786312187500 5.47781198437500 
 C -3.22443592500000 4.95598812187500 5.59396498437500 
 C -4.36190892500000 0.908658121875003 4.87034098437500 
 C -4.41925392500000 4.60760912187500 4.88226498437500 
 N -2.19210892500000 1.68734312187500 4.56763198437500 
 N -2.23486792500000 5.39547412187500 4.83889498437500 
 N -4.23906192500000 0.689728121875002 3.58067898437500 
 N -4.26798192500000 4.52703612187500 3.56642698437500 
 N -4.77626092500000 1.10683312187500 7.46144198437500 
 N -4.92793492500000 4.84880012187500 7.40805598437500 
 S -5.63834692500000 0.909205121875003 6.07394798437500 
 S -5.69870892500000 4.39277112187500 6.04802998437500 
 S -2.65501792500000 1.04886412187500 3.08260298437500 
 S -2.74127592500000 5.12957312187500 3.22905098437500 
 S -3.19729592500000 1.63727112187500 7.23808298437500 
 S -3.32933992500000 5.06939012187500 7.31958998437500 
