16

 C -3.16680441562500 1.34130651250000 5.34268496875000 
 C -3.10388041562500 4.89787051250000 5.52294296875000 
 C -4.31403441562500 0.565533512500001 4.82037396875000 
 C -4.40405141562500 4.59772351250000 4.95385996875000 
 N -2.23066741562500 1.61209051250000 4.44258896875000 
 N -2.16264841562500 4.94629251250000 4.57082396875000 
 N -4.15124041562500 0.286377512500001 3.54248496875000 
 N -4.47042741562500 4.59361351250000 3.62364196875000 
 N -4.88529841562500 1.17278251250000 7.25278996875000 
 N -4.75224541562500 4.81550151250000 7.50179796875000 
 S -5.53820741562500 0.295038512500001 5.98153196875000 
 S -5.64943841562500 4.53547151250000 6.12404696875000 
 S -2.71096941562500 0.956109512500001 3.04825596875000 
 S -2.91726141562500 4.72964751250000 3.11357096875000 
 S -3.36905241562500 1.81434951250000 6.99648696875000 
 S -3.12202541562500 5.26352351250000 7.29694496875000 
