16

 C -2.89430930312500 1.21751457500000 5.46071408125000 
 C -2.90099330312500 5.04625657500000 5.70215708125000 
 C -4.04557430312499 0.744509575000001 4.76413008125000 
 C -4.17741430312500 4.65540557500000 5.11550608125000 
 N -1.81990930312499 1.36866557500000 4.68857408125000 
 N -1.89910330312500 5.17729957500000 4.84930508125000 
 N -3.86727030312499 0.530855575000001 3.45079008125000 
 N -4.17727530312500 4.54062157500000 3.79354708125000 
 N -4.84854430312499 1.00434457500000 7.18533508125000 
 N -4.52038830312499 4.82774857500000 7.68582208125000 
 S -5.47278530312500 0.451206575000001 5.76835508125000 
 S -5.32887730312499 4.23599357500000 6.36529708125000 
 S -2.28556030312499 0.861456575000001 3.10120008125000 
 S -2.59966630312499 4.86807357500000 3.36783408125000 
 S -3.28236530312499 1.60481157500000 7.14017208125000 
 S -2.95357630312499 5.39059757500000 7.35698308125000 
