16

 C -2.89300748750000 1.42848963125000 5.74050121875000 
 C -3.17367748750000 4.72761363125000 5.61986421875000 
 C -4.18061248750000 1.18957463125000 5.08954221875000 
 C -4.43734548750000 4.61111663125000 4.96612021875000 
 N -1.82874248750000 1.46143063125000 4.93724821875000 
 N -2.09402448750000 4.71729063125000 4.78934921875000 
 N -4.10444148750000 1.07180563125000 3.76457121875000 
 N -4.38414848750000 4.66767263125000 3.63555421875000 
 N -4.69729048750000 1.49391663125000 7.65371021875000 
 N -5.00417748750000 4.65487863125000 7.47581021875000 
 S -5.54062448750000 1.24962663125000 6.25670821875000 
 S -5.80436248750000 4.44006963125000 6.05677621875000 
 S -2.50363848750000 1.28777263125000 3.40572721875000 
 S -2.74547448750000 4.73953563125000 3.27287921875000 
 S -3.02237548750000 1.62767963125000 7.53697821875000 
 S -3.39644448750000 4.98082963125000 7.35034121875000 
