16

 C -3.33592542187500 1.01827236562500 5.66138744375000 
 C -2.92097342187500 5.10382436562500 5.58223444375000 
 C -4.51466742187500 0.653742365624999 4.90427444375000 
 C -4.12885342187500 4.67404236562500 4.89898444375000 
 N -2.27748442187500 1.14538536562500 4.88553144375000 
 N -1.92200542187500 5.17295136562500 4.70239144375000 
 N -4.38031642187500 0.371899365624999 3.63386344375000 
 N -4.07329242187500 4.36133536562500 3.61241844375000 
 N -5.20674942187500 0.880011365624998 7.29011644375000 
 N -4.71318242187500 4.79433336562500 7.36844644375000 
 S -5.87431442187500 0.254516365624998 5.89262344375000 
 S -5.42654242187500 4.30053236562500 5.96497344375000 
 S -2.84587442187500 0.889407365624999 3.35336544375000 
 S -2.46987042187500 4.76225036562500 3.19899144375000 
 S -3.60996742187500 1.25451136562500 7.31372344375000 
 S -3.14950942187500 5.36725436562500 7.29146644375000 
