16

 C -3.53448646562500 1.30019868437500 5.49846908437500 
 C -3.01667346562500 5.17632968437500 5.41877308437500 
 C -4.54875446562500 0.606861684374997 4.76065408437500 
 C -4.21816346562500 4.83690968437500 4.74343308437500 
 N -2.42342946562500 1.55017368437500 4.82674108437500 
 N -1.92608446562500 5.02379568437500 4.63332308437500 
 N -4.17758346562500 0.325403684374996 3.48268108437500 
 N -4.07172846562500 4.44210468437500 3.44931208437500 
 N -5.40473546562500 1.04373868437500 7.29083008437500 
 N -5.01523446562500 5.36521668437500 7.00705708437500 
 S -5.89306846562500 0.194248684374997 5.87150808437500 
 S -5.70054346562500 4.84490768437500 5.54877808437500 
 S -2.68616846562500 1.06985068437500 3.31916508437500 
 S -2.45677946562500 4.52931168437500 3.16389608437500 
 S -3.85776546562500 1.67152868437500 7.11576808437500 
 S -3.39648946562500 5.51485568437500 7.12997508437500 
