16

 C -2.81278057187500 1.31612169375000 5.34302329375000 
 C -3.14577457187500 5.00630069375000 5.43165229375000 
 C -4.06838657187500 0.827911693749996 4.81150629375000 
 C -4.32894157187500 4.43580769375000 4.83305629375000 
 N -1.87764657187500 1.53357369375000 4.40643129375000 
 N -2.15003757187500 5.22163569375000 4.60685729375000 
 N -4.14541357187500 0.638129693749997 3.51895329375000 
 N -4.32110457187500 4.29953969375000 3.48956029375000 
 N -4.46436657187500 1.17453069375000 7.32921329375000 
 N -4.81956457187500 5.01614669375000 7.36098429375000 
 S -5.38314057187500 0.776751693749997 5.95388229375000 
 S -5.60926257187500 4.26682369375000 6.10807429375000 
 S -2.61179657187500 1.15066669375000 2.94612529375000 
 S -2.76184357187500 4.84565169375000 3.05669929375000 
 S -2.92107057187500 1.78068769375000 6.98798929375000 
 S -3.26789157187500 5.47062469375000 7.12422329375000 
