16

 C -3.35125063750000 1.28826771250000 5.38995010625000 
 C -3.26826263750000 5.09035771250000 5.79482110625000 
 C -4.61812863750000 0.863375712500002 4.68901310625000 
 C -4.55076463750000 4.77566771250000 5.17932110625000 
 N -2.32902063750000 1.62752371250000 4.61364810625000 
 N -2.24665363750000 5.22271571250000 4.97581010625000 
 N -4.49247063750000 0.973171712500001 3.41847710625000 
 N -4.49035863750000 4.68666271250000 3.85953310625000 
 N -5.25099763750000 0.921333712500001 7.16494410625000 
 N -5.08627263750000 4.88663671250000 7.74387510625000 
 S -5.98289963750000 0.451079712500001 5.71160110625000 
 S -5.81445563750000 4.38830171250000 6.31572510625000 
 S -2.91324563750000 1.41343671250000 3.07341710625000 
 S -2.84460463750000 5.02737671250000 3.45528510625000 
 S -3.69326163750000 1.45021171250000 7.11994610625000 
 S -3.43285663750000 5.20185471250000 7.52905610625000 
