16

 C -3.22716076250000 1.10454398125000 5.18663055937500 
 C -3.22714176250000 5.00499398125000 5.57187355937500 
 C -4.54623676250000 0.811120981250000 4.65436955937500 
 C -4.48587576250000 4.61473298125000 4.99367855937500 
 N -2.23433876250000 1.13866798125000 4.31498455937500 
 N -2.29901276250000 5.19675698125000 4.58584055937500 
 N -4.53401476250000 0.733311981250000 3.34083155937500 
 N -4.53447576250000 4.55614398125000 3.65576855937500 
 N -4.82200676250000 1.46885598125000 7.06626855937500 
 N -4.89484676250000 4.91414098125000 7.57035055937500 
 S -5.74808376250000 0.847017981250000 5.90338455937500 
 S -5.76960676250000 4.44129798125000 6.14350555937500 
 S -2.89748876250000 0.831492981250000 2.86673255937500 
 S -2.99313576250000 4.96441798125000 3.11628255937500 
 S -3.20179976250000 1.66965598125000 6.85856355937500 
 S -3.22618476250000 5.25624698125000 7.32185155937500 
