16

 C -3.24510712500000 0.908717828125003 5.44851281875000 
 C -3.32360212500000 5.02263482812500 5.55170481875000 
 C -4.52307812500000 0.688656828125002 4.77585381875000 
 C -4.50862112500000 4.56079782812500 4.87591481875000 
 N -2.21088812500000 1.09238482812500 4.62790181875000 
 N -2.25092312500000 5.30296882812500 4.74648081875000 
 N -4.46152112500000 0.715065828125002 3.43822181875000 
 N -4.34938712500000 4.39566382812500 3.56260081875000 
 N -5.03415412500000 0.634409828125002 7.28223881875000 
 N -4.98261712500000 4.53396182812500 7.42752981875000 
 S -5.89577312500000 0.446493828125003 5.88519681875000 
 S -5.87969112500000 4.38871582812500 6.00578881875000 
 S -2.84103012500000 0.979268828125003 3.07691281875000 
 S -2.79382112500000 4.92532682812500 3.24929281875000 
 S -3.40522512500000 0.801689828125003 7.15355081875000 
 S -3.37006612500000 4.92277182812500 7.29867281875000 
