16

 C -2.78514111250000 1.47721716562500 5.79678593125000 
 C -3.39920311250000 5.44056516562500 5.54928993125000 
 C -4.13936911250000 1.37752716562500 5.17341993125000 
 C -4.62840411250000 4.97352716562500 4.91710893125000 
 N -1.73797311250000 1.57691116562500 4.95686793125000 
 N -2.39998211250000 5.61461116562500 4.69116393125000 
 N -4.08989811250000 1.34535716562500 3.83170393125000 
 N -4.50741111250000 4.72705116562500 3.62191093125000 
 N -4.54438211250000 1.35280516562500 7.69380393125000 
 N -5.09236011250000 5.04660516562500 7.47185393125000 
 S -5.44697811250000 1.37401716562500 6.30879893125000 
 S -5.94260811250000 4.74648516562500 6.07877093125000 
 S -2.49413911250000 1.45801616562500 3.47535893125000 
 S -2.92642811250000 5.16554216562500 3.22453293125000 
 S -2.92617711250000 1.53805516562500 7.55925693125000 
 S -3.44792911250000 5.32223116562500 7.30928693125000 
