16

 C -3.10897270312500 1.62686645937500 5.45072080625000 
 C -2.95161270312500 5.04113345937500 5.38430480625000 
 C -4.36973370312500 1.12261645937500 4.93823280625000 
 C -4.23488970312500 4.66518445937500 4.87129980625000 
 N -2.06332670312500 1.64246045937500 4.62158780625000 
 N -1.88753470312500 4.87121745937500 4.54471780625000 
 N -4.31233370312500 0.847379459375000 3.64998080625000 
 N -4.21257370312500 4.36839045937500 3.55773380625000 
 N -4.82811270312500 1.43499745937500 7.37239080625000 
 N -4.70938870312500 5.12982645937500 7.34247180625000 
 S -5.66914870312500 0.821596459375001 6.03184080625000 
 S -5.53744470312500 4.92355445937500 5.88317680625000 
 S -2.78479170312500 1.22602545937500 3.17772880625000 
 S -2.58960470312500 4.46412145937500 3.11066980625000 
 S -3.26580970312500 1.80345945937500 7.18548180625000 
 S -3.04206170312500 5.28225145937500 7.10732180625000 
