16

 C -3.05119396875000 1.25445218124999 5.42747965000000 
 C -3.04412396875001 5.19052718124999 5.51188965000000 
 C -4.17288596875000 0.690232181249994 4.75476965000000 
 C -4.32342796875001 4.91647218124999 4.88532265000000 
 N -2.05387196875000 1.70464518124999 4.60122765000000 
 N -2.04141996875000 5.26514018124999 4.65009165000000 
 N -4.05254496875000 0.552988181249993 3.44831365000000 
 N -4.21854696875000 4.70784818124999 3.56831365000000 
 N -4.98705696875000 0.919438181249993 7.20058765000000 
 N -4.57438196875001 5.05265218124999 7.47142565000000 
 S -5.57020496875001 0.476895181249993 5.64145165000000 
 S -5.56927796875001 4.99689318124999 6.16884865000000 
 S -2.54577296875001 1.23253918124999 3.07048565000000 
 S -2.58200996875000 4.99214418124999 3.12787765000000 
 S -3.39058396875001 1.40237718124999 7.18986065000000 
 S -2.97813196875000 5.37220918124999 7.20442165000000 
