16

 C -3.19046464687500 1.48190677812500 5.61418708437500 
 C -3.49957264687500 5.29133677812500 5.45721708437500 
 C -4.39691664687500 0.834552778125000 5.07679108437500 
 C -4.58851464687500 4.57439977812500 4.86752908437500 
 N -2.23245464687500 1.74783277812500 4.75028208437500 
 N -2.46707264687500 5.60338577812500 4.69577908437500 
 N -4.31600864687500 0.681041778125000 3.76369608437500 
 N -4.46322764687500 4.44593177812500 3.56027008437500 
 N -4.89944564687500 0.845917778125001 7.58417308437500 
 N -5.38135764687500 4.97670677812500 7.26944808437500 
 S -5.66552164687500 0.459280778125001 6.20769108437500 
 S -5.90834364687500 4.09981777812500 5.89657508437500 
 S -2.77618364687500 1.24566777812500 3.28169908437500 
 S -2.93360664687500 5.00111777812500 3.19017408437500 
 S -3.40253064687500 1.55800277812500 7.38353408437500 
 S -3.84465364687500 5.61712777812500 7.14353508437500 
