16

 C -3.25058622812500 1.46453728750000 5.38080011250000 
 C -3.38176022812500 5.34621328750000 5.45333311250000 
 C -4.39816122812500 0.862242287500003 4.90316411250000 
 C -4.52881822812500 4.74533628750000 4.82041511250000 
 N -2.37350322812500 1.78944228750000 4.44569711250000 
 N -2.40362222812500 5.73119328750000 4.63230011250000 
 N -4.38343222812500 0.622171287500002 3.60930411250000 
 N -4.36457522812500 4.70488728750000 3.51155811250000 
 N -4.92271922812500 1.17723528750000 7.30825311250000 
 N -5.02379722812500 4.81646128750000 7.36841311250000 
 S -5.61586222812500 0.464315287500003 5.96177611250000 
 S -5.76545522812500 4.28880728750000 6.02057311250000 
 S -2.95363322812500 1.19496628750000 3.03027311250000 
 S -2.89509722812500 5.31337828750000 3.10409911250000 
 S -3.36944122812500 1.78014728750000 7.08537611250000 
 S -3.48571122812500 5.41105228750000 7.17887511250000 
