16

 C -3.10770724062500 1.13570592500000 5.41460608125000 
 C -2.77080724062500 5.16881192500000 5.42168008125000 
 C -4.42590624062500 0.713041925000002 4.91339408125000 
 C -4.01430324062500 4.88274592500000 4.72558408125000 
 N -2.18289824062500 1.10652692500000 4.47662808125000 
 N -1.69114924062500 5.35448492500000 4.65144008125000 
 N -4.47222324062500 0.493293925000001 3.62378408125000 
 N -3.83406824062500 4.66942192500000 3.41980208125000 
 N -4.77613824062500 1.04989692500000 7.41930308125000 
 N -4.68694624062500 4.83565592500000 7.17244908125000 
 S -5.71463624062500 0.810192925000001 6.05473708125000 
 S -5.43686124062500 4.64277692500000 5.66008908125000 
 S -2.94103524062500 0.718190925000001 3.02698408125000 
 S -2.27247824062500 5.11034592500000 3.10661508125000 
 S -3.21429424062500 1.58330492500000 7.11668708125000 
 S -3.07104524062500 5.33935592500000 7.14162008125000 
