16

 C -2.97441534375000 1.35460095312500 5.56639032187500 
 C -3.06648534375000 5.09004195312500 5.16023132187500 
 C -4.12195434375000 0.952930953125000 4.86640032187500 
 C -4.32883634375000 4.85734295312500 4.55956732187500 
 N -1.87909734375000 1.46780495312500 4.77955032187500 
 N -2.05471034375000 5.07980895312500 4.30915532187500 
 N -3.93976934375000 0.747863953125000 3.55782332187500 
 N -4.29064034375000 4.60007895312500 3.22467032187500 
 N -4.93418434375000 1.52179495312500 7.22294732187500 
 N -4.74419034375000 5.03925795312500 7.16154232187500 
 S -5.48966234375000 0.885120953125000 5.83448032187500 
 S -5.60998334375000 4.80489195312500 5.74408932187500 
 S -2.29822334375000 0.924516953125000 3.25981732187500 
 S -2.70874234375000 4.71804595312500 2.78049132187500 
 S -3.27774134375000 1.68762195312500 7.30651832187500 
 S -3.08917734375000 5.33907795312500 6.93028332187500 
