16

 C -3.29538595937500 1.13815496250000 5.98555225312500 
 C -2.90967595937500 4.68671996250000 5.28155225312500 
 C -4.44929695937500 0.608918962500000 5.19636825312500 
 C -4.22921195937500 4.44812596250000 4.73976225312500 
 N -2.28006695937500 1.47604896250000 5.18658425312500 
 N -1.91596695937500 4.85482696250000 4.39939225312500 
 N -4.25415595937500 0.703231962500000 3.86632925312500 
 N -4.22899195937500 4.47762296250000 3.41895925312500 
 N -4.96024495937500 0.437415962500000 7.69591525312500 
 N -4.69067795937500 4.54815196250000 7.23943825312500 
 S -5.77612995937500 0.322052962500000 6.24897925312500 
 S -5.56509795937500 4.52461296250000 5.85184825312500 
 S -2.68076095937500 1.29924096250000 3.60376825312500 
 S -2.69403495937500 4.72413696250000 2.90233125312500 
 S -3.50718995937500 1.31401896250000 7.67894625312500 
 S -3.04904995937500 4.84415496250000 7.06636725312500 
