16

 C -3.16780183750000 1.37528059375000 5.41596470625000 
 C -3.31606083750000 5.00536359375000 5.46723870625000 
 C -4.41693683750000 0.969354593749999 4.79328370625000 
 C -4.51360783750000 4.53278359375000 4.80995970625000 
 N -2.23198283750000 1.64601959375000 4.55029770625000 
 N -2.35935583750000 5.34080359375000 4.63317270625000 
 N -4.33309883750000 0.812966593749999 3.51167270625000 
 N -4.41981483750000 4.36355759375000 3.49548070625000 
 N -4.89751783750000 1.19988659375000 7.30920970625000 
 N -5.01117483750000 4.61984859375000 7.36255370625000 
 S -5.69521683750000 0.741315593749999 5.92445270625000 
 S -5.73087883750000 4.05699459375000 5.94811970625000 
 S -2.78614583750000 1.27530559375000 3.03720470625000 
 S -2.92828783750000 4.96601259375000 3.10835470625000 
 S -3.29732183750000 1.57600959375000 7.08362370625000 
 S -3.41707883750000 5.06495059375000 7.18967570625000 
