16

 C -2.95761146875000 1.54172867187500 5.33841256875000 
 C -3.25300746875000 5.34188467187500 5.89701556875000 
 C -4.15663046875000 1.06189967187500 4.71412656875000 
 C -4.44909246875000 4.87493367187500 5.16453956875000 
 N -1.90992046875000 1.53638667187500 4.49740656875000 
 N -2.18022146875000 5.50915967187500 5.16946856875000 
 N -4.09958446875000 0.736663671874999 3.40898156875000 
 N -4.22310446875000 4.70465767187500 3.85777756875000 
 N -4.84626246875000 1.32775267187500 7.11625956875000 
 N -5.07697546875000 5.09330967187500 7.70476856875000 
 S -5.49506646875000 0.695085671874999 5.74323056875000 
 S -5.80655246875000 4.74813367187500 6.24797656875000 
 S -2.53214046875000 1.14772267187500 3.00578656875000 
 S -2.55251546875000 5.10395967187500 3.65299756875000 
 S -3.26785846875000 1.80085967187500 7.09952756875000 
 S -3.46850446875000 5.50752667187500 7.58533456875000 
