16

 C -2.94954914687500 1.60213025937500 5.45079520937500 
 C -3.15619714687500 5.16278125937500 5.55023220937500 
 C -4.20172914687500 1.48512025937500 4.79024620937500 
 C -4.32100214687500 4.63873225937500 4.86898720937500 
 N -1.91449014687500 1.52806525937500 4.63986720937500 
 N -2.08865414687500 5.37737225937500 4.74366220937500 
 N -4.05695114687500 1.31177025937500 3.47669420937500 
 N -4.13480114687500 4.32231825937500 3.59045720937500 
 N -4.66420414687500 1.66099125937500 7.31225820937500 
 N -4.97690014687500 5.06101925937500 7.33039420937500 
 S -5.51668014687500 1.40802925937500 5.93490920937500 
 S -5.73525214687500 4.67749625937500 5.88746820937500 
 S -2.44320914687500 1.22360725937500 3.06389320937500 
 S -2.60512414687500 4.75919925937500 3.19804820937500 
 S -3.03136914687500 1.88952625937500 7.13592220937500 
 S -3.35613514687500 5.28526025937500 7.25643420937500 
