16

 C -3.25539587812500 1.53997482187500 5.62840210625000 
 C -3.53431887812500 5.34299382187500 5.57564410625000 
 C -4.47096787812500 1.02011582187500 5.05923210625000 
 C -4.56527187812500 4.56206282187500 5.00258310625000 
 N -2.26052787812500 1.75186482187500 4.72962210625000 
 N -2.47490487812500 5.70134882187500 4.75972710625000 
 N -4.40951887812500 0.894275821875000 3.74838210625000 
 N -4.42357087812500 4.49811482187500 3.65899310625000 
 N -4.91385987812500 1.11373782187500 7.59281810625000 
 N -5.24465787812500 4.75206382187500 7.52187610625000 
 S -5.77422087812500 0.742508821874999 6.20295210625000 
 S -5.90723787812500 4.27261982187500 6.05415910625000 
 S -2.96251987812500 1.48983682187500 3.19977110625000 
 S -2.97307187812500 5.16128982187500 3.24205410625000 
 S -3.37907187812500 1.50241182187500 7.33492410625000 
 S -3.69034187812500 5.44118582187500 7.34318510625000 
