16

 C -2.95199936562500 1.30617387187500 5.66578294687500 
 C -2.92368236562500 4.98783987187500 5.43224994687500 
 C -4.17761136562500 0.949759871875000 5.07889894687500 
 C -4.17150336562500 4.36541587187500 4.91628994687500 
 N -1.93485336562500 1.41905987187500 4.82965694687500 
 N -1.99554736562500 5.21827987187500 4.51533194687500 
 N -4.13334536562500 0.676249871875000 3.79051494687500 
 N -4.00786636562500 3.88365287187500 3.71789394687500 
 N -4.79011136562500 1.05623087187500 7.49452294687500 
 N -4.74579936562500 5.14826387187500 7.23728094687500 
 S -5.54486736562500 0.808402871875000 6.09609994687500 
 S -5.43952836562500 4.17740787187500 6.04449394687500 
 S -2.56488436562500 0.983376871875000 3.34854494687500 
 S -2.51303336562500 4.31639087187500 3.17217694687500 
 S -3.20539836562500 1.54884887187500 7.32436194687500 
 S -3.11904336562500 5.57808587187500 7.10711894687500 
