16

 C -3.38440236250000 1.25385574062500 5.31401723750000 
 C -3.21050836250000 5.40157474062500 5.63341523750000 
 C -4.56672336250000 0.742144740624996 4.68885823750000 
 C -4.38596736250000 5.19068174062500 4.80462723750000 
 N -2.39277336250000 1.41765974062500 4.43879323750000 
 N -2.10229536250000 5.65509874062500 4.91739923750000 
 N -4.43735136250000 0.397306740624995 3.41464623750000 
 N -4.14442836250000 5.11531374062500 3.49271523750000 
 N -4.99111136250000 1.06513374062500 7.23984023750000 
 N -5.17683736250000 5.09278774062500 7.27541423750000 
 S -5.78645636250000 0.439736740624996 5.90976723750000 
 S -5.87111536250000 5.05382674062500 5.80689923750000 
 S -2.90969836250000 0.971158740624996 3.00165523750000 
 S -2.49451336250000 5.40038874062500 3.32377623750000 
 S -3.46140736250000 1.57946374062500 7.02892323750000 
 S -3.49947236250000 5.28584274062500 7.38875023750000 
