16

 C -3.17932217187500 1.26599034062500 5.55693934062500 
 C -3.05733017187500 5.07440334062500 5.60967534062500 
 C -4.39132917187500 0.858224340624997 5.01588134062500 
 C -4.27752317187500 4.57527634062500 4.99632434062500 
 N -2.14706217187500 1.38548434062500 4.75270134062500 
 N -2.07888617187500 5.35629634062500 4.76133134062500 
 N -4.25619017187500 0.574480340624997 3.72640434062500 
 N -4.21623417187500 4.51716834062500 3.66514634062500 
 N -4.95065117187500 1.15935334062500 7.42142034062500 
 N -4.85940617187500 4.66884734062500 7.45946034062500 
 S -5.70028417187500 0.584303340624997 6.03822134062500 
 S -5.64738117187500 4.37403734062500 5.98415934062500 
 S -2.78374217187500 1.08184034062500 3.25252834062500 
 S -2.75090717187500 5.05870834062500 3.19579534062500 
 S -3.31345217187500 1.49915434062500 7.23001434062500 
 S -3.22161817187500 5.17629034062500 7.34681334062500 
