16

 C -3.35250038125000 1.51168291562500 5.49543942187500 
 C -3.30041538125000 5.12767591562500 5.35401842187500 
 C -4.55529938125000 1.00488791562500 4.79124242187500 
 C -4.50974538125000 4.57434491562500 4.78231742187500 
 N -2.32589238125000 1.61640591562500 4.70054342187500 
 N -2.33935838125000 5.41329391562500 4.48578742187500 
 N -4.39529838125000 0.874486915624999 3.49719742187500 
 N -4.44206438125000 4.43356791562500 3.46430442187500 
 N -5.05584838125000 1.24572191562500 7.34749242187500 
 N -4.99603238125000 4.65471691562500 7.27845442187500 
 S -5.85413138125000 0.723887915624999 5.95349842187500 
 S -5.78658838125000 4.10641991562500 5.86530942187500 
 S -2.79235038125000 1.19302391562500 3.18207142187500 
 S -2.91326738125000 4.85728491562500 3.03636342187500 
 S -3.39657838125000 1.48011791562500 7.22574442187500 
 S -3.42568638125000 5.15633191562500 7.11538642187500 
