16

 C -2.94958740937500 1.39701983750000 5.30900595000000 
 C -3.08589940937500 5.11139783750000 5.49318995000000 
 C -4.23596640937500 1.00764283750000 4.70975395000000 
 C -4.24383240937500 4.55153983750000 4.85343095000000 
 N -2.00020640937500 1.66065483750000 4.44169795000000 
 N -2.06212440937500 5.37417683750000 4.67940795000000 
 N -4.20163040937500 0.981884837499999 3.36466195000000 
 N -4.16267540937500 4.58137883750000 3.54333995000000 
 N -4.56438340937500 1.16349083750000 7.22414695000000 
 N -4.98789940937500 4.75292083750000 7.23628695000000 
 S -5.48124240937500 0.954824837499999 5.85770395000000 
 S -5.59846340937500 4.18252083750000 5.84132595000000 
 S -2.65538440937500 1.30104783750000 2.96823195000000 
 S -2.64830740937500 5.00673983750000 3.13648195000000 
 S -2.94731640937500 1.61688883750000 6.99530895000000 
 S -3.42229940937500 5.23217283750000 7.19847895000000 
