16

 C -3.33093349687500 1.46476084062500 5.18920719062500 
 C -3.09848149687500 5.18986284062500 5.36482019062500 
 C -4.51738649687500 1.01887584062500 4.52512819062500 
 C -4.28502449687500 4.54659384062500 4.76364419062500 
 N -2.22658549687500 1.46649684062500 4.46911719062500 
 N -1.99813749687500 5.14957284062500 4.58708119062500 
 N -4.28070549687500 0.619728840625000 3.29852019062500 
 N -4.05109449687500 4.04330984062500 3.54897819062500 
 N -5.11954449687500 1.06751284062500 6.99922019062500 
 N -4.86723849687500 4.94228084062500 7.26333819062500 
 S -5.85349349687500 0.627562840625000 5.57433119062500 
 S -5.62892349687500 4.45990384062500 5.87456519062500 
 S -2.64082149687500 0.863939840625000 2.96303119062500 
 S -2.39990449687500 4.25807084062500 3.26963019062500 
 S -3.56470049687500 1.72135084062500 6.89299319062500 
 S -3.27864149687500 5.50986484062500 7.14135019062500 
