16

 C -3.08882366875000 1.28560916562500 5.54258280312500 
 C -2.98252966875000 5.13805116562500 5.61854480312500 
 C -4.24110066875000 0.746350165624997 4.83801880312500 
 C -4.09984066875000 4.51357516562500 4.97928180312500 
 N -1.97519166875000 1.25723016562500 4.84548180312500 
 N -1.93414266875000 5.33449216562500 4.82173180312500 
 N -4.02077566875000 0.441209165624996 3.57680880312500 
 N -3.93626666875000 4.32799616562500 3.66945480312500 
 N -4.89513866875000 0.994285165624997 7.32191380312500 
 N -4.69551866875000 4.68632716562500 7.47861480312500 
 S -5.59792366875000 0.597662165624997 5.82853580312500 
 S -5.45694266875000 4.32962916562500 6.05500480312500 
 S -2.46709366875000 0.845255165624996 3.34200880312500 
 S -2.45733566875000 4.90776016562500 3.30014680312500 
 S -3.24138766875000 1.28034016562500 7.25375780312500 
 S -3.15454666875000 5.36043916562500 7.32909880312500 
