16

 C -3.09728775937500 1.19111113437500 5.65361045312500 
 C -3.03756275937500 4.79848913437500 5.49846145312500 
 C -4.36346475937500 0.824621134375001 5.07986145312500 
 C -4.23868275937500 4.35841513437500 4.86316145312500 
 N -2.03440275937500 1.25716713437500 4.81336145312500 
 N -1.99482175937500 4.82316313437500 4.66748245312500 
 N -4.26042575937500 0.528647134375000 3.76787045312500 
 N -4.12380575937500 4.12833713437500 3.58028745312500 
 N -4.78605075937500 1.03158113437500 7.64084045312500 
 N -4.91001175937500 4.88075413437500 7.22650945312500 
 S -5.67928575937500 0.738554134375001 6.30243845312500 
 S -5.56686475937500 4.06740013437500 5.88122345312500 
 S -2.65709575937500 0.800086134375000 3.37304645312500 
 S -2.53034875937500 4.35200313437500 3.19710545312500 
 S -3.26346575937500 1.62497913437500 7.37384045312500 
 S -3.31091175937500 5.35882213437500 7.16912245312500 
