16

 C -2.82474914687500 1.45274538437500 5.84508961875000 
 C -3.40591714687500 5.36271738437500 5.60204961875000 
 C -4.09472414687500 1.38964438437500 5.21638661875000 
 C -4.64533214687500 4.98121338437500 4.93176761875000 
 N -1.83569714687500 1.43583338437500 4.97309561875000 
 N -2.33583314687500 5.53975238437500 4.81539761875000 
 N -4.04749114687500 1.31820638437500 3.89970061875000 
 N -4.45035814687500 4.74735538437500 3.64258461875000 
 N -4.60022614687500 1.32907838437500 7.73079461875000 
 N -5.08016014687500 5.01451838437500 7.51007461875000 
 S -5.43182914687500 1.32522638437500 6.29552661875000 
 S -5.96452414687500 4.74452838437500 6.09019761875000 
 S -2.45755314687500 1.40492038437500 3.36819061875000 
 S -2.88187514687500 5.06354838437500 3.26702261875000 
 S -2.91429714687500 1.53536738437500 7.58978161875000 
 S -3.44068914687500 5.20985738437500 7.30335261875000 
