16

 C -3.09323688125001 1.21039403125000 5.71465834062500 
 C -2.85242188125001 4.68110603125000 5.48610434062500 
 C -4.46802688125001 1.00893303125000 5.32698434062500 
 C -4.12458588125001 4.57143303125000 4.82391034062500 
 N -2.11654888125001 0.929562031249999 4.85643134062500 
 N -1.87116388125001 4.79734603125000 4.60779934062500 
 N -4.56362888125001 0.573805031249998 4.06419434062500 
 N -4.10865388125001 4.53089403125000 3.52273534062500 
 N -4.57944188125001 1.73274303125000 7.72749534062500 
 N -4.68159188125001 4.57194103125000 7.33205534062500 
 S -5.64199588125001 1.31227503125000 6.52912834062500 
 S -5.44622088125001 4.53174203125000 5.91913434062500 
 S -2.96762888125001 0.627675031249998 3.44916234062500 
 S -2.48239488125001 4.78016703125000 3.05894534062500 
 S -2.97508888125001 1.78333203125000 7.33425234062500 
 S -3.01599388125001 4.87938303125000 7.20343634062500 
