16

 C -3.26445783750000 1.16553278437500 5.53960918125000 
 C -3.18778983750000 5.50361478437500 5.71239118125000 
 C -4.45382283750000 0.670785784375000 4.88055018125000 
 C -4.25191483750000 4.78495678437500 5.03315318125000 
 N -2.26510983750000 1.36036278437500 4.72169018125000 
 N -2.22174083750000 5.94134778437500 4.93382918125000 
 N -4.38327983750000 0.582276784375000 3.55151818125000 
 N -4.12512683750000 4.86096678437500 3.72811518125000 
 N -4.98893383750000 0.771823784375000 7.36289318125000 
 N -4.82288883750000 4.65195478437500 7.54788918125000 
 S -5.74196683750000 0.505663784375000 5.94411018125000 
 S -5.58244183750000 4.36772178437500 6.04935618125000 
 S -2.92691683750000 1.16760978437500 3.15419518125000 
 S -2.68940483750000 5.54434178437500 3.38953818125000 
 S -3.39619183750000 1.23844278437500 7.28428318125000 
 S -3.29097983750000 5.37045878437500 7.46648618125000 
