16

 C -3.17761750000000 1.45205002500000 5.44181353750000 
 C -2.99225950000000 5.09811402500000 5.50167253750000 
 C -4.46311850000000 1.40604202500000 4.85054553750000 
 C -4.27469250000000 4.87558202500000 4.88939053750000 
 N -2.16882850000000 1.59609702500000 4.62445853750000 
 N -1.98033650000000 5.36556002500000 4.67812053750000 
 N -4.39907550000000 1.45770602500000 3.54622953750000 
 N -4.26085650000000 5.03943602500000 3.56559253750000 
 N -4.87001750000000 1.45654902500000 7.32569653750000 
 N -4.73263750000000 4.76652602500000 7.44935853750000 
 S -5.77616050000000 1.34343702500000 5.91960753750000 
 S -5.57871050000000 4.47648802500000 6.01425153750000 
 S -2.73141250000000 1.66567102500000 3.09766953750000 
 S -2.64335450000000 5.28720002500000 3.12040353750000 
 S -3.21213750000000 1.64047402500000 7.11591953750000 
 S -3.10581750000000 5.03896302500000 7.22202553750000 
