16

 C -3.11674580312500 1.67642280000000 5.44418767500000 
 C -2.95078380312500 5.27280280000000 5.51301767500000 
 C -4.34321780312500 1.25047680000000 4.78299567500000 
 C -4.21364180312500 4.94668580000000 4.88511167500000 
 N -2.03876480312500 1.84349180000000 4.69397867500000 
 N -1.98794080312500 5.51446180000000 4.62609567500000 
 N -4.17491080312500 1.14131580000000 3.47552667500000 
 N -4.21123580312500 4.85412180000000 3.55070667500000 
 N -4.83783180312500 1.32178780000000 7.27992767500000 
 N -4.76915480312500 4.96148780000000 7.37289267500000 
 S -5.70800180312500 1.12634080000000 5.88725467500000 
 S -5.60128580312500 4.93087480000000 5.95185867500000 
 S -2.57676580312500 1.40644480000000 3.15369167500000 
 S -2.63567380312500 5.14525280000000 3.09523767500000 
 S -3.16871580312500 1.62305580000000 7.14183467500000 
 S -3.16523180312500 5.29919880000000 7.23866567500000 
