16

 C -3.37734422812500 1.56961388750000 5.43237998437500 
 C -3.05650822812500 5.56834088750000 5.63023398437500 
 C -4.50256822812500 1.00796188750000 4.77801498437500 
 C -4.22657922812500 5.01151388750000 5.01802898437500 
 N -2.30266222812500 1.82523388750000 4.68645298437500 
 N -2.13857322812500 6.03512588750000 4.75998998437500 
 N -4.23092722812500 0.598240887499999 3.51349598437500 
 N -4.06684522812500 4.74362788750000 3.69371198437500 
 N -5.17653122812500 1.16902488750000 7.28120898437500 
 N -4.83331822812500 5.11335388750000 7.49776998437500 
 S -5.92603822812500 0.749115887499999 5.83278098437500 
 S -5.56777622812500 4.56913988750000 6.08685898437500 
 S -2.67704922812500 1.00908388750000 3.24125898437500 
 S -2.64820122812500 5.54526388750000 3.25607398437500 
 S -3.60521222812500 1.71013088750000 7.15198298437500 
 S -3.21481022812500 5.66063088750000 7.31935998437500 
