16

 C -2.98226034062500 1.78544285000000 5.67156243125000 
 C -3.15146834062500 5.42847785000000 5.61574243125000 
 C -4.04788234062500 0.999538850000002 5.13124243125000 
 C -4.33948334062500 4.86313085000000 5.02898543125000 
 N -2.00217534062500 1.95985085000000 4.77757243125000 
 N -2.15087234062500 5.61632785000000 4.76060643125000 
 N -3.93508834062500 0.652777850000001 3.88131743125000 
 N -4.20789234062500 4.53817085000000 3.74889243125000 
 N -4.75149934062500 1.37590285000000 7.49457743125000 
 N -4.85560234062500 5.31066785000000 7.50999243125000 
 S -5.41684534062500 0.782782850000002 6.07067143125000 
 S -5.66250034062500 4.96289885000000 6.12139143125000 
 S -2.38639134062500 1.09102785000000 3.42425543125000 
 S -2.59818134062500 4.94644885000000 3.34001843125000 
 S -3.26658434062500 2.10757085000000 7.34436443125000 
 S -3.24042834062500 5.62332185000000 7.38529443125000 
