16

 C -3.10236505625000 1.63078464687500 5.44479761562500 
 C -3.04442105625000 5.27858164687500 5.51643761562500 
 C -4.35382605625000 1.36441364687500 4.81695661562500 
 C -4.28144205625000 4.93848564687500 4.82345461562500 
 N -2.10427105625000 1.69905964687500 4.57698161562500 
 N -2.04317305625000 5.42350464687500 4.67827061562500 
 N -4.29941205625000 1.24404764687500 3.49718361562500 
 N -4.23643805625000 4.83195164687500 3.50989061562500 
 N -4.91690705625000 1.31521364687500 7.29673461562500 
 N -4.73022705625000 4.94722664687500 7.42396961562500 
 S -5.68003305625000 1.25280164687500 5.83798561562500 
 S -5.59291005625000 4.79258464687500 5.94453661562500 
 S -2.65878605625000 1.53285464687500 2.99379561562500 
 S -2.63108905625000 5.26934664687500 3.12461361562500 
 S -3.29432505625000 1.57440964687500 7.21180461562500 
 S -3.05410405625000 5.11872964687500 7.22388761562500 
