16

 C -3.21134249375000 1.50039665937500 5.40273386250000 
 C -3.36359349375000 5.35845865937500 5.47058486250000 
 C -4.44102349375000 0.832945659375004 4.86633886250000 
 C -4.54015549375000 4.81244465937500 4.84153586250000 
 N -2.34354649375000 1.75767665937500 4.43248786250000 
 N -2.38504849375000 5.67852365937500 4.62136186250000 
 N -4.42416749375000 0.557217659375004 3.58807886250000 
 N -4.41643549375000 4.70046965937500 3.50856986250000 
 N -4.89242449375000 1.17784065937500 7.32440886250000 
 N -5.02555649375000 4.78281765937500 7.36120886250000 
 S -5.60805649375000 0.473600659375005 6.01245686250000 
 S -5.76908749375000 4.23042765937500 5.96377586250000 
 S -2.94553549375000 1.16264165937500 3.04548986250000 
 S -2.89395049375000 5.31707065937500 3.07193286250000 
 S -3.39006849375000 1.83646465937500 7.09671786250000 
 S -3.50887849375000 5.43808765937500 7.18264886250000 
