16

 C -3.08700194687500 1.15425520625000 5.48127265625000 
 C -3.14152394687500 5.52310520625000 5.48530065625000 
 C -4.35954894687500 0.912891206249999 4.83114465625000 
 C -4.21218094687500 4.78250720625000 4.86964565625000 
 N -2.03048594687500 1.26081020625000 4.62514265625000 
 N -2.10063494687500 5.76877720625000 4.68766065625000 
 N -4.28396694687500 0.905208206249998 3.48349865625000 
 N -4.00736694687500 4.41798120625000 3.62413465625000 
 N -4.78743194687500 0.995809206249999 7.40316765625000 
 N -5.06768194687500 5.33811420625000 7.20284965625000 
 S -5.65567294687500 0.808671206249999 6.02942965625000 
 S -5.61809294687500 4.39772120625000 5.88451165625000 
 S -2.67651794687500 0.949776206249998 3.08920965625000 
 S -2.50037894687500 5.05287020625000 3.19603265625000 
 S -3.17591094687500 1.35522820625000 7.18547265625000 
 S -3.52885494687500 5.94926320625000 7.10815765625000 
