16

 C -3.12376649375000 1.72945595000000 5.77702665625000 
 C -3.18382749375000 5.28079195000000 5.89192065625000 
 C -4.29136149375000 1.10406895000000 5.09893665625000 
 C -4.30765949375000 4.66991295000000 5.28382865625000 
 N -2.14796349375000 1.90518295000000 4.92250965625000 
 N -2.14874849375000 5.52280795000000 5.06634765625000 
 N -4.18002849375000 0.784016950000002 3.83532565625000 
 N -4.12175249375000 4.51951395000000 3.95098365625000 
 N -5.05603149375000 1.11101895000000 7.43725165625000 
 N -4.69048149375000 4.85953895000000 7.90207765625000 
 S -5.68448749375000 0.659801950000002 5.99586765625000 
 S -5.63292949375000 4.44303895000000 6.45755165625000 
 S -2.72411849375000 1.44024995000000 3.34663765625000 
 S -2.58649749375000 5.06243795000000 3.56073965625000 
 S -3.58086049375000 1.88990895000000 7.48691165625000 
 S -3.16876749375000 5.62331495000000 7.53981565625000 
