16

 C -3.18738818125000 1.39431556875000 5.36817295937500 
 C -3.21662018125000 5.30242056875000 5.71521495937500 
 C -4.29135018125000 0.659035568750004 4.86368795937500 
 C -4.38414018125000 4.73848056875000 5.08912395937500 
 N -2.21782518125000 1.52241056875000 4.49891695937500 
 N -2.14694718125000 5.38643556875000 4.90182495937500 
 N -4.09429718125000 0.167030568750004 3.64582295937500 
 N -4.21452818125000 4.49191356875000 3.76895595937500 
 N -5.01360718125000 1.58651756875000 7.17625595937500 
 N -5.02320118125000 5.04552056875000 7.58130395937500 
 S -5.69260818125000 0.699362568750003 5.90884695937500 
 S -5.66787118125000 4.53070456875000 6.15065995937500 
 S -2.63398118125000 0.626190568750004 3.12222395937500 
 S -2.69720618125000 4.89860756875000 3.37600195937500 
 S -3.43746518125000 2.06412556875000 6.94517195937500 
 S -3.51392818125000 5.74128556875000 7.34762795937500 
