16

 C -3.32451148125000 1.28604090625000 5.26033019375000 
 C -3.20625948125000 5.34775590625000 5.58029419375000 
 C -4.52964048125000 0.708362906250001 4.77120719375000 
 C -4.34477148125000 5.17240490625000 4.76230419375000 
 N -2.30262348125000 1.45457090625000 4.40680019375000 
 N -2.13044248125000 5.57307090625000 4.85784319375000 
 N -4.51016748125000 0.565282906250000 3.46036319375000 
 N -4.20971848125000 5.15642390625000 3.46947419375000 
 N -5.01273348125000 1.03003090625000 7.27669219375000 
 N -5.14176948125000 5.03443590625000 7.28761219375000 
 S -5.83810148125000 0.457659906250000 5.92878619375000 
 S -5.74737248125000 5.03492990625000 5.70609319375000 
 S -2.95992648125000 0.894225906250000 2.89997919375000 
 S -2.58009848125000 5.40875890625000 3.24430719375000 
 S -3.43994348125000 1.59055890625000 6.98386319375000 
 S -3.49947148125000 5.18270390625000 7.29660319375000 
