16

 C -2.89276748437500 1.36308140625000 5.57805059062500 
 C -3.09372248437500 5.13751640625000 5.16380759062500 
 C -4.10314848437500 0.996578406250000 4.84404259062500 
 C -4.37810348437500 4.83764040625000 4.58524059062500 
 N -1.79848248437500 1.44053940625000 4.84958159062500 
 N -2.09129648437500 5.22701640625000 4.28822159062500 
 N -3.89620948437500 0.722149406250001 3.54788859062500 
 N -4.30709748437500 4.50406540625000 3.28509659062500 
 N -4.92922048437500 1.55420940625000 7.24725059062500 
 N -4.71213848437500 4.92691540625000 7.07653759062500 
 S -5.57958648437500 0.855698406250000 5.84464659062500 
 S -5.62244648437500 4.81429440625000 5.74284759062500 
 S -2.30906048437500 0.929089406250000 3.24983459062500 
 S -2.71691448437500 4.84807740625000 2.83173659062500 
 S -3.27568048437500 1.61623440625000 7.25797659062500 
 S -3.13218748437500 5.35562540625000 6.88690559062500 
