16

 C -3.31468487812500 1.37813950000000 5.51266093437500 
 C -3.42504187812500 5.05611250000000 5.19501393437500 
 C -4.49182587812500 0.848113500000002 4.93422393437500 
 C -4.63649687812500 4.64236750000000 4.55249693437500 
 N -2.30922687812500 1.60704150000000 4.64258193437500 
 N -2.40749487812500 5.32514150000000 4.37779593437500 
 N -4.44781687812500 0.546194500000001 3.62145093437500 
 N -4.42925987812500 4.34744150000000 3.28358093437500 
 N -5.02984687812500 0.904098500000001 7.53861593437500 
 N -5.12280987812500 4.60162750000000 7.09143893437500 
 S -5.79536287812500 0.624589500000001 6.05250493437500 
 S -5.86450687812500 4.19954450000000 5.64845293437500 
 S -2.93846987812500 1.06433750000000 3.15906693437500 
 S -2.90972287812500 4.84067050000000 2.83044193437500 
 S -3.53300787812500 1.62115850000000 7.29115793437500 
 S -3.56707387812500 5.13480350000000 6.97908393437500 
