16

 C -3.09490349062500 1.43168387187500 5.49917345625000 
 C -2.97615049062500 4.91852787187500 5.29189845625000 
 C -4.29665049062500 0.919800871874997 4.82783145625000 
 C -4.29971949062500 4.67188387187500 4.68482545625000 
 N -2.01397649062500 1.58986887187500 4.71340345625000 
 N -1.99054049062500 4.69660487187500 4.46689445625000 
 N -4.14611849062500 0.781705871874997 3.51573345625000 
 N -4.25763849062500 4.55442987187500 3.37575945625000 
 N -4.82394849062500 1.33339987187500 7.40556645625000 
 N -4.68767749062500 5.24616087187500 7.21674745625000 
 S -5.58625249062500 0.909511871874996 5.98998045625000 
 S -5.58404449062500 4.91225787187500 5.83270845625000 
 S -2.52614649062500 1.06157487187500 3.18072345625000 
 S -2.59602149062500 4.52882087187500 2.96101445625000 
 S -3.28515149062500 1.86199987187500 7.24117145625000 
 S -3.01928549062500 5.32326987187500 7.01459745625000 
