16

 C -3.13270500625000 1.36659630000000 5.47590628125000 
 C -3.11115800625000 4.97652930000001 5.59512428125000 
 C -4.34134400625000 0.835513300000005 4.90255528125000 
 C -4.34542000625000 4.56155430000001 4.95915128125000 
 N -2.13316900625000 1.61820730000001 4.63023228125000 
 N -2.16655600625000 5.38834330000001 4.75156128125000 
 N -4.29845200625000 0.620776300000005 3.55677628125000 
 N -4.24634800625000 4.49011430000000 3.62411028125000 
 N -4.82726600625000 1.13255330000000 7.44839328125000 
 N -4.92219600625000 4.78629130000000 7.41870328125000 
 S -5.69444300625000 0.801669300000005 6.06630228125000 
 S -5.69833100625000 4.40287930000000 6.02698428125000 
 S -2.69448200625000 1.05471730000001 3.11782828125000 
 S -2.75737300625000 5.13548530000001 3.22895728125000 
 S -3.22412700625000 1.59188130000001 7.30846028125000 
 S -3.31479200625000 5.09802730000000 7.33401228125000 
