16

 C -3.10007128125000 1.63354057187500 5.44687737812500 
 C -3.03968528125000 5.28039157187500 5.51568737812500 
 C -4.35074328125000 1.37301657187500 4.81671437812500 
 C -4.27837528125000 4.94084357187500 4.82668737812500 
 N -2.10764028125000 1.70088457187500 4.57454037812500 
 N -2.04193828125000 5.42650757187500 4.67437337812500 
 N -4.29590228125000 1.23254157187500 3.49795037812500 
 N -4.23532328125000 4.82759057187500 3.51429737812500 
 N -4.91326528125000 1.31309957187500 7.30142837812500 
 N -4.73211728125000 4.94814757187500 7.42280037812500 
 S -5.68100228125000 1.24900157187500 5.83723537812500 
 S -5.59432628125000 4.80004157187500 5.94179237812500 
 S -2.65372728125000 1.53018157187500 2.99420937812500 
 S -2.63298928125000 5.26696457187500 3.12273237812500 
 S -3.29470128125000 1.57363057187500 7.21138937812500 
 S -3.05673628125000 5.12298057187500 7.22547537812500 
