16

 C -3.13825877812500 1.49271119687500 5.72533760312500 
 C -3.00863977812500 4.62695819687500 5.47388560312500 
 C -4.37382577812500 1.15666419687500 5.10641360312500 
 C -4.25379177812500 4.22628319687500 4.86766960312500 
 N -2.12662777812500 1.64705719687500 4.88026460312500 
 N -1.99532777812500 4.78482219687500 4.59705560312500 
 N -4.21673177812500 0.871369196874999 3.82606760312500 
 N -4.13464977812500 3.94744119687500 3.58365060312500 
 N -4.78204577812500 1.44276319687500 7.60149260312500 
 N -4.89939077812500 4.48899419687500 7.36001760312500 
 S -5.67151477812500 1.13900119687500 6.21968360312500 
 S -5.61152877812500 4.15260519687500 5.90353560312500 
 S -2.61259377812500 1.19809319687500 3.37487060312500 
 S -2.62682677812500 4.31958619687500 3.08005660312500 
 S -3.18787877812500 1.71288019687500 7.42532760312500 
 S -3.26786077812500 4.61913419687500 7.23729160312500 
