16

 C -3.12932408750000 1.11393358437500 5.59033905312500 
 C -3.32310708750000 4.86266658437500 5.43033505312500 
 C -4.24146608750000 0.631075584375000 4.82679705312500 
 C -4.62193908750000 4.74800758437500 4.83514905312500 
 N -2.11066108750000 1.55731058437500 4.82189705312500 
 N -2.28744908750000 4.84888558437500 4.57338405312500 
 N -4.05075808750000 0.601203584375000 3.51885105312500 
 N -4.62942108750000 4.70857458437500 3.49481705312500 
 N -5.05029508750000 0.405165584375000 7.24198205312500 
 N -5.06871408750000 4.77345858437500 7.41063205312500 
 S -5.59957508750000 6.475758437499968E-002 5.70082205312500 
 S -5.93228808750000 4.54768058437500 5.97328905312500 
 S -2.60410908750000 1.32176458437500 3.25523205312500 
 S -3.00827108750000 4.64370758437500 3.09269705312500 
 S -3.51717208750000 1.10221858437500 7.26811205312500 
 S -3.40977508750000 4.75401258437500 7.18296105312500 
