16

 C -2.97307195000001 1.43795578125000 5.65381110937500 
 C -2.96027195000001 5.29046078125000 5.37715710937500 
 C -4.23902395000001 1.02538278125000 5.12873110937500 
 C -4.21528695000001 4.82752778125000 4.74603910937500 
 N -2.07457795000001 1.68181178125000 4.70769610937500 
 N -1.92543795000001 5.54091378125000 4.62327310937500 
 N -4.34843295000001 0.902519781250001 3.80478610937500 
 N -4.09764595000001 4.77727078125000 3.41396910937500 
 N -4.70340795000001 1.30743878125000 7.65524610937500 
 N -4.54888495000001 4.85148078125000 7.39026010937500 
 S -5.53095995000001 0.877475781250002 6.24011610937500 
 S -5.46376795000001 4.61630878125000 6.00008810937500 
 S -2.82499395000001 1.21811378125000 3.20572210937500 
 S -2.53439295000001 5.20715478125000 3.08617610937500 
 S -3.08943395000001 1.64444578125000 7.42246310937500 
 S -3.04047095000001 5.44554478125000 7.05880510937500 
