16

 C -3.17468643125000 1.05231407500000 5.50876736250000 
 C -3.11527843125000 5.52281207500000 5.57486736250000 
 C -4.42336043125000 0.837418074999998 4.85839936250000 
 C -4.23978543125000 4.94444307500000 4.84682836250000 
 N -2.09900543125000 1.07835407500000 4.73391336250000 
 N -2.06661943125000 5.81292907500000 4.83307836250000 
 N -4.34191443125000 0.700052074999999 3.53302236250000 
 N -3.99329543125000 4.69173107500000 3.58339836250000 
 N -4.95883843125000 1.19577207500000 7.34838436250000 
 N -4.92767443125000 5.11617707500000 7.40840836250000 
 S -5.70789943125000 0.729285074999998 5.96454136250000 
 S -5.50507843125000 4.44799907500000 5.94457236250000 
 S -2.78947043125000 1.08011207500000 3.18430736250000 
 S -2.42377143125000 5.30685607500000 3.28441136250000 
 S -3.31809243125000 1.44949907500000 7.21388536250000 
 S -3.50529543125000 5.99446507500000 7.20970736250000 
