16

 C -3.18154532187500 1.37277262812500 5.41105821875000 
 C -3.31676232187500 5.01921062812500 5.46695621875000 
 C -4.42309532187500 0.976280628124999 4.78864121875000 
 C -4.50527232187500 4.53056862812500 4.81274721875000 
 N -2.23621132187500 1.64939062812500 4.56020121875000 
 N -2.36241432187500 5.34278762812500 4.63188521875000 
 N -4.34078432187500 0.812348628124999 3.50857721875000 
 N -4.42463532187500 4.37070562812500 3.49653521875000 
 N -4.90421132187500 1.20595862812500 7.30696321875000 
 N -5.01316432187500 4.62187662812500 7.35375721875000 
 S -5.70257532187500 0.739883628124999 5.92376521875000 
 S -5.73335332187500 4.05674562812500 5.94545721875000 
 S -2.78674432187500 1.27165962812500 3.04624821875000 
 S -2.92834332187500 4.95899962812500 3.10433921875000 
 S -3.29726332187500 1.57232262812500 7.09000621875000 
 S -3.41456632187500 5.06719562812500 7.18461221875000 
