16

 C -3.11121775000000 1.60993514687500 5.67959820937500 
 C -3.11094775000000 5.16545214687500 5.62729020937500 
 C -4.41458175000000 1.51698114687500 5.05155920937500 
 C -4.37510575000000 4.97039714687500 4.98625820937500 
 N -2.03790975000000 1.70339814687500 4.86272120937500 
 N -2.04850575000000 5.37769114687500 4.86744020937500 
 N -4.31902675000000 1.42831114687500 3.69244620937500 
 N -4.24218075000000 4.90779714687500 3.65640520937500 
 N -4.84444575000000 1.58142214687500 7.63425120937500 
 N -4.82204575000000 4.99228714687500 7.53987920937500 
 S -5.67234875000000 1.30368214687500 6.28266420937500 
 S -5.65067275000000 4.64463414687500 6.14842620937500 
 S -2.74334375000000 1.75776014687500 3.34385620937500 
 S -2.63545075000000 5.32662414687500 3.30558120937500 
 S -3.22512775000000 1.88913514687500 7.46064720937500 
 S -3.22836375000000 5.30643714687500 7.34246220937500 
