16

 C -2.82121972812500 1.71398660312500 5.30112743125000 
 C -3.30652472812500 5.08159360312500 5.60705643125000 
 C -4.02679772812500 1.11022760312500 4.77810343125000 
 C -4.48650972812500 4.63833260312500 4.88851943125000 
 N -1.94339372812500 1.99378360312500 4.34942443125000 
 N -2.30090672812500 5.33648760312500 4.77962343125000 
 N -3.88771572812500 0.819850603125002 3.49526543125000 
 N -4.36021772812500 4.55110460312500 3.54778443125000 
 N -4.25139572812500 1.07917660312500 7.35666143125000 
 N -5.04623472812500 4.47168960312500 7.46931043125000 
 S -5.11017472812500 0.567603603125002 6.03574243125000 
 S -5.76335872812500 3.98929260312500 6.02380743125000 
 S -2.40547872812500 1.38002760312500 2.87612243125000 
 S -2.81216472812500 5.05020960312500 3.22108743125000 
 S -2.78621772812500 1.73759460312500 7.03681143125000 
 S -3.47721972812500 4.93772860312500 7.35000943125000 
