16

 C -3.10926518750000 1.23589586875000 5.64645683750000 
 C -3.38073818750000 5.26220286875000 5.39466183750000 
 C -4.24144418750000 0.614681868750001 5.06389483750000 
 C -4.45782618750000 4.44678486875000 4.85585483750000 
 N -2.09385318750000 1.62328586875000 4.88151683750000 
 N -2.43730618750000 5.69033386875000 4.52187183750000 
 N -4.01961918750000 0.421630868750000 3.75344983750000 
 N -4.12782518750000 4.05159986875000 3.61848783750000 
 N -4.88211718750000 0.960826868750001 7.55864883750000 
 N -5.14271418750000 4.99838686875000 7.16296383750000 
 S -5.55305318750000 0.277931868750001 6.14514783750000 
 S -5.76773718750000 4.13111386875000 5.92038683750000 
 S -2.57182118750000 1.04635986875000 3.35083483750000 
 S -2.71648518750000 4.76771986875000 3.18106383750000 
 S -3.38221618750000 1.61193986875000 7.30238083750000 
 S -3.71167418750000 5.81104886875000 6.97314783750000 
