16

 C -2.95833652500000 1.36787237812500 5.28236901562500 
 C -3.14571952500000 5.09836137812500 5.49741401562500 
 C -4.24711052500000 1.05726837812500 4.72163601562500 
 C -4.32253552500000 4.65987837812500 4.80167801562500 
 N -2.02274252500000 1.64035937812500 4.38342101562500 
 N -2.10153852500000 5.39364437812500 4.69810401562500 
 N -4.23473252500000 0.948843378125000 3.41574001562500 
 N -4.16081952500000 4.53867537812500 3.48322601562500 
 N -4.52196452500000 1.15038037812500 7.29602101562500 
 N -5.02283852500000 4.76189637812500 7.24925801562500 
 S -5.46547552500000 0.903004378125000 5.94936001562500 
 S -5.68085152500000 4.19360637812500 5.80794301562500 
 S -2.64195852500000 1.30430637812500 2.93132701562500 
 S -2.61478052500000 5.09472737812500 3.16806601562500 
 S -2.95466252500000 1.59846837812500 6.96694201562500 
 S -3.42269452500000 5.23360137812500 7.18619601562500 
