16

 C -3.32094904062500 1.32917249375000 5.54618979062500 
 C -3.15767804062500 5.07125449375000 5.46856379062500 
 C -4.56311904062500 0.937698493749999 4.99284879062500 
 C -4.38861704062500 4.76228249375000 4.78976279062500 
 N -2.32220604062500 1.43410449375000 4.68324079062500 
 N -2.15207904062500 5.22069849375000 4.62859179062500 
 N -4.52113404062500 0.857992493749999 3.67175179062500 
 N -4.29935504062500 4.57612849375000 3.47207879062500 
 N -4.88363704062500 0.913341493749999 7.50567579062500 
 N -4.88356704062500 4.64363949375000 7.31142679062500 
 S -5.84258504062500 0.832582493749999 6.13467279062500 
 S -5.76781904062500 4.53186949375000 5.88455379062500 
 S -2.92427904062500 1.10193649375000 3.20021579062500 
 S -2.73766304062500 4.98940449375000 3.11464679062500 
 S -3.34727604062500 1.46121349375000 7.20685979062500 
 S -3.24818204062500 5.16320349375000 7.17062879062500 
