16

 C -3.17901920937500 1.54166472187500 5.45973830937500 
 C -2.98928620937500 5.11626772187500 5.51906430937500 
 C -4.46598820937500 1.42564472187500 4.80373830937500 
 C -4.28024720937500 4.85874472187500 4.89620230937500 
 N -2.12919420937500 1.52130772187500 4.63901230937500 
 N -1.97271220937500 5.28202872187500 4.65506430937500 
 N -4.40386620937500 1.50513272187500 3.47519830937500 
 N -4.26196820937500 5.00595872187500 3.58275430937500 
 N -4.86956520937500 1.49449572187500 7.36535530937500 
 N -4.76937720937500 4.66269972187500 7.44279730937500 
 S -5.76587020937500 1.37716872187500 6.01821930937500 
 S -5.54797720937500 4.41219772187500 5.97183230937500 
 S -2.78572820937500 1.70113872187500 3.10055330937500 
 S -2.70214120937500 5.29614372187500 3.13311030937500 
 S -3.22001320937500 1.65926372187500 7.15223930937500 
 S -3.10067920937500 5.02877872187500 7.28011530937500 
