16

 C -3.15037288125000 1.22457053437500 5.60795008750000 
 C -3.62555988125000 4.98062253437500 5.05987508750000 
 C -4.37972888125000 0.705771534375002 5.01054108750000 
 C -4.68567988125000 4.21954453437500 4.48672308750000 
 N -2.18758188125000 1.46426653437500 4.71271208750000 
 N -2.61299388125000 5.25879553437500 4.26231608750000 
 N -4.39511188125000 0.670602534375003 3.68688008750000 
 N -4.50108888125000 3.95818053437500 3.21346608750000 
 N -4.73038988125000 0.788367534375002 7.54691108750000 
 N -5.28559988125000 4.64858653437500 6.91206708750000 
 S -5.61221488125000 0.538395534375002 6.18929508750000 
 S -5.99794688125000 3.83675553437500 5.68653608750000 
 S -2.81754588125000 1.05808353437500 3.23384108750000 
 S -3.02139488125000 4.56297753437500 2.78779808750000 
 S -3.20755188125000 1.37143753437500 7.28868108750000 
 S -3.75751688125000 5.21419453437500 6.73623708750000 
