16

 C -3.12403444062500 1.38706621562500 5.42344947187500 
 C -3.31812044062500 4.95556421562500 5.46732447187500 
 C -4.38588344062500 0.939672215624999 4.82006247187500 
 C -4.54402244062500 4.53163821562500 4.80593447187500 
 N -2.20130444062500 1.63437221562500 4.50943347187500 
 N -2.34277144062500 5.33247921562500 4.63345847187500 
 N -4.30354544062500 0.815335215625000 3.51075247187500 
 N -4.40165644062500 4.34036221562500 3.49308847187500 
 N -4.87026444062500 1.17325121562500 7.31811847187500 
 N -5.00494944062500 4.60901421562500 7.39312547187500 
 S -5.66724144062500 0.746711215624999 5.92847747187500 
 S -5.72279644062500 4.05961021562500 5.95972447187500 
 S -2.78487744062500 1.28967721562500 3.00363247187500 
 S -2.92538244062500 4.99423721562500 3.12299347187500 
 S -3.29558844062500 1.59238521562500 7.06531847187500 
 S -3.42624244062500 5.05667721562500 7.21015747187500 
