16

 C -3.15795854062500 1.18217019687500 5.62643771250000 
 C -3.07993654062500 5.03186519687500 5.60547271250000 
 C -4.42826054062500 0.779115196875002 4.96679871250000 
 C -4.30622154062500 4.69972419687500 4.92606771250000 
 N -2.13044654062500 1.38012219687500 4.79188371250000 
 N -2.10940854062500 5.36008319687500 4.76933071250000 
 N -4.34841654062500 0.603551196875002 3.66410071250000 
 N -4.22198254062500 4.51309019687500 3.62962971250000 
 N -4.98747454062500 1.13475919687500 7.41825771250000 
 N -4.75859254062500 4.65098219687500 7.41433171250000 
 S -5.72062254062500 0.493465196875001 6.08359971250000 
 S -5.57185354062500 4.34712019687500 6.04077371250000 
 S -2.77303054062500 1.04693319687500 3.28809171250000 
 S -2.68628554062500 5.00786419687500 3.20773271250000 
 S -3.36366954062500 1.47821519687500 7.27122071250000 
 S -3.21616454062500 5.19606719687500 7.34515871250000 
