16

 C -2.84667104375000 1.27774420000001 5.76589635937500 
 C -3.06437004375000 4.65830520000001 5.49598635937500 
 C -4.09549004375000 1.08872820000000 5.09223035937500 
 C -4.24995804375000 4.33270620000000 4.75542035937500 
 N -1.78070204375000 1.29421820000001 4.96210735937500 
 N -1.87777104375000 4.70888820000000 4.88249835937500 
 N -4.04238704375000 1.09217020000000 3.75244135937500 
 N -3.96417104375000 4.16615720000001 3.43488635937500 
 N -4.89402204375000 1.62538020000000 7.48888335937500 
 N -5.03312704375000 4.91340220000000 7.14637935937500 
 S -5.48692104375000 1.22375720000000 5.96852935937500 
 S -5.76018704375000 4.33598220000000 5.82897735937500 
 S -2.42904704375000 1.10945020000001 3.39542435937500 
 S -2.26803204375000 4.38566020000000 3.30553035937500 
 S -3.14652804375000 1.56959120000000 7.53052235937500 
 S -3.38203204375000 5.07010220000001 7.17007235937500 
