16

 C -3.39676344062500 1.69878957187500 5.59118207500000 
 C -3.08767844062500 5.17102857187500 5.59904407500000 
 C -4.63995744062500 1.27488257187500 4.94736607500000 
 C -4.36822844062501 4.99044457187500 5.00342007500000 
 N -2.34909144062500 1.78359257187500 4.73953107500000 
 N -2.03482944062500 5.17677557187500 4.80972907500000 
 N -4.54430744062500 1.09645457187500 3.63955907500000 
 N -4.33040944062500 4.82657057187500 3.70370907500000 
 N -5.25483044062501 1.46120857187500 7.34445807500000 
 N -4.63692344062500 5.22528057187500 7.63715607500000 
 S -5.96260244062501 0.984770571875002 5.93446807500000 
 S -5.55237244062501 4.95124857187500 6.34980907500000 
 S -2.99234544062500 1.51019257187500 3.16371007500000 
 S -2.71509044062500 4.97312857187500 3.28603407500000 
 S -3.62506144062500 1.77714757187500 7.36208307500000 
 S -2.99135444062500 5.26540757187500 7.32162807500000 
