16

 C -3.03260886250000 1.26634529375000 5.65252688437500 
 C -3.08929486250000 5.10911329375000 5.40166488437500 
 C -4.24387886250000 0.829681293750003 4.96841488437500 
 C -4.18694086250000 4.35449229375000 4.89518388437500 
 N -1.97760386250000 1.37883529375000 4.84659388437500 
 N -2.05373886250000 5.32099329375000 4.55512388437500 
 N -4.01311486250000 0.544698293750002 3.65639988437500 
 N -3.93177386250000 3.77670329375000 3.70984088437500 
 N -4.81275786250000 0.914792293750002 7.51721388437500 
 N -4.82200486250000 5.18101829375000 7.25817388437500 
 S -5.56242386250000 0.652987293750003 6.07592788437500 
 S -5.39686186250000 4.17014829375000 6.12296388437500 
 S -2.39667486250000 1.02050629375000 3.30333088437500 
 S -2.49930986250000 4.46034229375000 3.16534288437500 
 S -3.23464986250000 1.61394229375000 7.38859988437500 
 S -3.35062586250000 5.82069829375000 6.99656788437500 
