16

 C -3.20004047812500 0.889182231250001 5.68714933437500 
 C -3.02763447812500 5.10464223125000 5.44254633437500 
 C -4.39730047812500 0.577678231250002 4.94695133437500 
 C -4.15633647812500 4.55804023125000 4.74952433437500 
 N -2.08216947812500 1.13517423125000 4.96120133437500 
 N -1.96884247812500 5.28227923125000 4.69565233437500 
 N -4.21479447812500 0.453226231250001 3.61324433437500 
 N -3.95493947812500 4.31078723125000 3.46347433437500 
 N -5.12825147812500 0.752781231250002 7.35609733437500 
 N -4.80858347812500 4.79606123125000 7.28761233437500 
 S -5.85097847812500 0.323409231250001 5.84705033437500 
 S -5.47307747812500 4.27606623125000 5.82885833437500 
 S -2.63240947812500 0.950409231250002 3.39052433437500 
 S -2.38200847812500 4.78080123125000 3.17002933437500 
 S -3.48680547812500 0.976084231250002 7.34755833437500 
 S -3.11339347812500 5.16997223125000 7.16273933437500 
