16

 C -3.20897603437500 1.11894090937500 5.18171164687500 
 C -3.22839103437500 5.00243890937500 5.56209364687500 
 C -4.53219803437500 0.814813909374998 4.65178964687500 
 C -4.50092503437500 4.61525290937500 4.97685364687500 
 N -2.23399903437500 1.13908790937500 4.30192864687500 
 N -2.29704703437500 5.19793590937500 4.58111664687500 
 N -4.53307403437500 0.730607909374998 3.34037964687500 
 N -4.53704603437500 4.54952990937500 3.62916264687500 
 N -4.83289903437500 1.44718190937500 7.06274864687500 
 N -4.87929203437500 4.91684790937500 7.57916464687500 
 S -5.75880603437500 0.841126909374998 5.89611464687500 
 S -5.77689503437500 4.44418790937500 6.14585364687500 
 S -2.91010203437500 0.825873909374997 2.86471864687500 
 S -2.98975203437500 4.95906290937500 3.12483264687500 
 S -3.20495103437500 1.66341890937500 6.87176764687500 
 S -3.22694603437500 5.25594990937500 7.29979564687500 
