16

 C -3.16860492500000 1.01204356562500 5.61192504375000 
 C -3.53095492500000 4.97920156562500 5.10776304375000 
 C -4.43679992500000 0.685824565624999 4.96965904375000 
 C -4.67043592500000 4.29522956562500 4.51651904375000 
 N -2.22735492500000 1.42943156562500 4.72600104375000 
 N -2.57269992500000 5.29756156562500 4.23212304375000 
 N -4.34575292500000 0.640930565624998 3.62238704375000 
 N -4.47895192500000 3.91083256562500 3.27000704375000 
 N -4.76468992500000 0.762290565624999 7.52772804375000 
 N -5.31654492500000 4.77472856562500 6.98825904375000 
 S -5.67768392500000 0.572750565624998 6.13145204375000 
 S -5.89200092500000 3.88249156562500 5.64432404375000 
 S -2.80325292500000 1.07987256562500 3.24418004375000 
 S -2.99747892500000 4.55112956562500 2.83428104375000 
 S -3.11051292500000 1.18112956562500 7.33730104375000 
 S -3.69031292500000 5.18891456562500 6.83030104375000 
