16

 C -3.16484252187500 1.27674441875001 5.19115040937500 
 C -3.34263852187500 5.02865441875001 5.43547840937500 
 C -4.47188652187500 0.932258418750005 4.69139040937500 
 C -4.58715852187500 4.64624741875001 4.88818940937500 
 N -2.19017452187500 1.18872741875001 4.27563640937500 
 N -2.27809552187500 5.20867441875001 4.62081840937500 
 N -4.49876952187500 0.586812418750006 3.42259740937500 
 N -4.50179352187500 4.50056441875001 3.56308140937500 
 N -4.93442152187500 1.24672741875001 7.21098640937500 
 N -4.81881552187500 4.86697641875001 7.42785640937500 
 S -5.77751752187500 0.801333418750006 5.75914040937500 
 S -5.75873452187500 4.52678241875001 6.20186940937500 
 S -2.99425752187500 0.777589418750005 2.81623440937500 
 S -2.93379452187500 4.86455941875001 3.12628540937500 
 S -3.29305052187500 1.55306241875001 6.94068240937500 
 S -3.25528852187500 5.25016341875001 7.06870440937500 
