16

 C -2.95677993750000 1.38464575312500 5.35516437812500 
 C -3.24359593749999 4.89024075312500 5.53223837812500 
 C -4.18820293749999 0.938926753125001 4.76529437812500 
 C -4.43547993749999 4.33035875312500 4.92311737812500 
 N -2.06583793749999 1.68224075312500 4.41288737812500 
 N -2.27336793749999 5.32769775312500 4.72736237812500 
 N -4.19022693749999 0.791303753125001 3.43061037812500 
 N -4.37175493749999 4.46226975312500 3.60552437812500 
 N -4.54830593750000 0.994770753125001 7.30227937812500 
 N -4.99540293749999 4.50421375312500 7.40903437812500 
 S -5.44052893749999 0.713080753125000 5.92170537812500 
 S -5.79278193749999 4.05956075312500 5.99930837812500 
 S -2.69646393749999 1.35661175312500 2.89435837812500 
 S -2.90111893749999 5.07798975312500 3.17849137812500 
 S -3.06527093749999 1.76049875312500 7.08630537812500 
 S -3.42172893749999 4.99686675312500 7.27644337812500 
