16

 C -3.17224922812500 1.53204793437500 5.55355198750000 
 C -3.23105822812500 4.99154493437500 5.40003198750000 
 C -4.41474522812500 1.20710793437500 4.91249998750000 
 C -4.47877122812500 4.71829893437500 4.70214798750000 
 N -2.04952822812500 1.57730493437500 4.82687298750000 
 N -2.12443722812500 4.94337793437500 4.62494698750000 
 N -4.25591922812500 1.02460093437500 3.59368298750000 
 N -4.30296122812500 4.59065293437500 3.38975198750000 
 N -4.96007022812500 1.44876593437500 7.53745398750000 
 N -5.15559222812500 5.06913593437500 7.13326798750000 
 S -5.74635822812500 1.07341893437500 6.12903798750000 
 S -5.90799222812500 4.59979593437500 5.70399998750000 
 S -2.67495922812500 1.18352493437500 3.31710598750000 
 S -2.71522422812500 4.58670093437500 3.10981698750000 
 S -3.32820022812500 1.83256393437500 7.31615298750000 
 S -3.50880022812500 5.31219093437500 7.09472998750000 
