16

 C -3.39006062812500 1.40185608437500 5.51808130312500 
 C -2.94847762812500 5.12554008437500 5.80827030312500 
 C -4.61051162812500 1.11782008437500 4.82544430312500 
 C -4.32160662812500 4.94361808437500 5.25080630312500 
 N -2.32907562812500 1.62224108437500 4.78542530312500 
 N -2.00046662812500 5.22028208437500 4.85418030312500 
 N -4.54322762812500 1.24430808437500 3.52072230312500 
 N -4.37769562812500 4.86354108437500 3.90994230312500 
 N -5.15123762812500 1.30287808437500 7.36642330312500 
 N -4.72484562812500 5.21470508437500 7.69817430312500 
 S -5.92101762812500 0.811002084374998 5.97586730312500 
 S -5.62626362812500 4.99212808437500 6.37978730312500 
 S -2.89577362812500 1.57009308437500 3.19290930312500 
 S -2.85114562812500 5.01162908437500 3.35588130312500 
 S -3.55314462812500 1.72957008437500 7.16954730312500 
 S -3.03480562812500 5.33389408437500 7.58763030312500 
