16

 C -3.12876630000000 1.56745594687500 5.46653778125000 
 C -3.20735030000000 5.25935794687500 5.94313178125000 
 C -4.31086730000000 1.07031994687500 4.82849278125000 
 C -4.46003330000000 4.99789394687500 5.31252778125000 
 N -2.19921730000000 1.91800794687500 4.55745578125000 
 N -2.16858930000000 5.32837894687500 5.14306378125000 
 N -4.25866130000000 0.984420946875003 3.48715978125000 
 N -4.30581430000000 4.88263994687500 3.99147378125000 
 N -4.94904030000000 0.979179946875002 7.24870578125000 
 N -4.83324930000000 5.13008794687500 7.89360978125000 
 S -5.68060730000000 0.682339946875002 5.78937478125000 
 S -5.80675330000000 4.96025694687500 6.48924878125000 
 S -2.75732630000000 1.40174894687500 3.08014578125000 
 S -2.67369630000000 5.04691394687500 3.62930678125000 
 S -3.38075830000000 1.42902794687500 7.23859678125000 
 S -3.19683530000000 5.38895394687500 7.64505678125000 
