16

 C -2.97885773437500 1.38908768750000 5.39123918125000 
 C -3.38477473437500 5.35979768750000 5.21752118125000 
 C -4.17915573437500 0.934312687500002 4.72229618125000 
 C -4.42098173437500 4.43421168750000 4.76445618125000 
 N -1.92603473437500 1.53455668750000 4.64340918125000 
 N -2.28452273437500 5.38388368750000 4.49335018125000 
 N -3.98173973437500 0.815667687500002 3.38652218125000 
 N -4.19149273437500 3.99143068750000 3.54687018125000 
 N -4.72519773437500 1.23368768750000 7.31061918125000 
 N -5.18770573437500 5.20513168750000 7.04163718125000 
 S -5.43793573437500 0.970651687500003 5.87357118125000 
 S -5.79811273437500 4.32229968750000 5.79886518125000 
 S -2.34043573437500 1.15536668750000 3.03403118125000 
 S -2.70616673437500 4.49591468750000 3.08077518125000 
 S -3.12116373437500 1.62531968750000 7.11679918125000 
 S -3.73688973437500 5.94406968750000 6.85432518125000 
