16

 C -3.37416783750000 1.56285861250000 5.48885220937500 
 C -3.09454883750000 5.50242061250000 5.60096120937500 
 C -4.51497783750000 0.933371612500003 4.81076520937500 
 C -4.27018183750000 4.92438661250000 4.98171620937500 
 N -2.32011583750000 1.79241761250000 4.64767720937500 
 N -2.14206783750000 5.89925561250000 4.78861220937500 
 N -4.28379483750000 0.726535612500003 3.52606920937500 
 N -4.12543383750000 4.84918761250000 3.67625120937500 
 N -5.21186183750000 1.22568661250000 7.22096820937500 
 N -4.81197683750000 5.10519561250000 7.50329320937500 
 S -5.93641883750000 0.729800612500003 5.80005820937500 
 S -5.55308483750000 4.60448561250000 6.11345820937500 
 S -2.63952183750000 1.08340261250000 3.17352420937500 
 S -2.71220283750000 5.49594061250000 3.26715620937500 
 S -3.66628183750000 1.84461761250000 7.16885820937500 
 S -3.18176983750000 5.63304561250000 7.34267620937500 
