16

 C -3.35967444062500 1.32451810000000 5.28057873750000 
 C -3.12419444062500 5.05254510000000 5.44817773750000 
 C -4.60816744062500 0.873675100000001 4.67870573750000 
 C -4.38960644062500 5.11272910000000 4.72324473750000 
 N -2.36217744062500 1.42123710000000 4.45127073750000 
 N -2.06815344062500 5.31371510000000 4.67287173750000 
 N -4.53953144062500 0.607819100000001 3.37369573750000 
 N -4.23512044062500 5.18870610000000 3.37508273750000 
 N -4.98596444062500 1.15106610000000 7.19390373750000 
 N -4.99203044062500 4.79517910000000 7.24136773750000 
 S -5.74811544062500 0.566110100000001 5.85544573750000 
 S -5.85104644062500 4.99241510000000 5.74061973750000 
 S -2.97968744062500 1.07301210000000 2.91226373750000 
 S -2.59650244062500 5.44844710000000 3.10759573750000 
 S -3.38315444062500 1.58643910000000 6.99325273750000 
 S -3.33617444062500 5.11840710000000 7.14802773750000 
