16

 C -3.07144087812499 1.06389811562500 5.43571996875000 
 C -3.14030187812499 4.84849911562500 5.47147396875000 
 C -4.28795687812499 0.697496115624999 4.75086796875000 
 C -4.45145087812499 4.65292111562500 4.87385096875000 
 N -1.98391087812499 1.23695811562500 4.66122996875000 
 N -2.09373387812499 4.87195911562500 4.64480796875000 
 N -4.18656287812499 0.550887115625000 3.42874896875000 
 N -4.37314087812499 4.36317511562500 3.53329796875000 
 N -4.87676787812500 0.629156115624999 7.26073496875000 
 N -4.83843987812499 5.06003711562500 7.41652096875000 
 S -5.61511287812499 0.323782115625000 5.79389296875000 
 S -5.72498087812499 4.99942711562500 6.02233696875000 
 S -2.56154887812499 0.943600115624999 3.09788196875000 
 S -2.70955787812499 4.52593411562500 3.19410696875000 
 S -3.30132687812499 1.12386811562500 7.19817396875000 
 S -3.16631387812499 4.93682611562500 7.15908096875000 
