16

 C -3.18809090312500 1.20408955000000 5.37157959375000 
 C -2.87005090312500 5.31141355000000 5.41699459375000 
 C -4.46761590312500 0.858265550000000 4.79719459375000 
 C -3.99428190312500 4.80552455000000 4.71211659375000 
 N -2.20712290312500 1.12813755000000 4.50146259375000 
 N -1.80593990312500 5.37765655000000 4.63845359375000 
 N -4.45450590312500 0.484153549999999 3.52413159375000 
 N -3.88906190312500 4.70662555000000 3.37542159375000 
 N -4.79017190312500 1.06738155000000 7.32565359375000 
 N -4.65157190312500 4.79169755000000 7.17438759375000 
 S -5.72345890312500 0.873377550000000 5.94750159375000 
 S -5.39111390312500 4.58887855000000 5.73194259375000 
 S -2.87767490312500 0.673986550000000 3.07211959375000 
 S -2.29867390312500 4.99554155000000 3.08042159375000 
 S -3.20372790312500 1.63336755000000 7.07707959375000 
 S -3.11816890312500 5.40464755000000 7.09646459375000 
