16

 C -3.32387945000000 1.49118215625000 5.48071817500000 
 C -3.31820845000000 5.15407415625000 5.36781817500000 
 C -4.57078345000000 0.987471156250001 4.75785617500000 
 C -4.50984945000000 4.51152615625000 4.81672517500000 
 N -2.29563445000000 1.63822715625000 4.67374017500000 
 N -2.33475545000000 5.40492815625000 4.50677517500000 
 N -4.39790145000000 0.856460156250001 3.44961817500000 
 N -4.45371845000000 4.45988215625000 3.50639817500000 
 N -5.02616845000000 1.25796615625000 7.32456117500000 
 N -5.00866845000000 4.64869715625000 7.26749517500000 
 S -5.83069745000000 0.723388156250000 5.94203517500000 
 S -5.77944945000000 4.08649615625000 5.88180017500000 
 S -2.79770745000000 1.20622315625000 3.17600917500000 
 S -2.91427545000000 4.86571015625000 3.04983317500000 
 S -3.35381245000000 1.49823315625000 7.20876717500000 
 S -3.41111945000000 5.13238715625000 7.13110217500000 
