16

 C -3.63837125000000 1.33595053125000 5.79044802500000 
 C -3.16926225000000 5.08282253125000 5.36284902500000 
 C -4.69729525000000 0.912177531249996 4.91311502500000 
 C -4.39455225000000 4.54871053125000 4.79837102500000 
 N -2.49171025000000 1.56160353125000 5.12250402500000 
 N -2.24445525000000 5.28662553125000 4.43544502500000 
 N -4.35029825000000 0.637258531249995 3.63525402500000 
 N -4.36058125000000 4.25411253125000 3.51081702500000 
 N -5.65407425000000 0.780868531249995 7.38230902500000 
 N -4.82072625000000 4.85841353124999 7.31774202500000 
 S -6.15883925000000 0.461353531249995 5.81943502500000 
 S -5.65997725000000 4.42335053125000 5.98914002500000 
 S -2.77960825000000 1.14661953125000 3.50969802500000 
 S -2.87769025000000 4.69861153125000 2.98222902500000 
 S -4.11824725000000 1.34053153125000 7.53061802500000 
 S -3.28017325000000 5.42916453125000 7.05542302500000 
