16

 C -2.78083864062500 1.70110790312500 5.38958583437500 
 C -3.42627564062500 5.12283990312500 5.56724483437500 
 C -3.83849864062500 0.878539903125000 4.75853083437500 
 C -4.51542764062500 4.37959690312500 4.94218383437500 
 N -1.86441464062500 2.10480190312500 4.54277783437500 
 N -2.43128964062500 5.52509790312500 4.75695183437500 
 N -3.70189464062500 0.805668903125000 3.43599583437500 
 N -4.38122364062500 4.40077290312500 3.62845883437500 
 N -4.40771764062500 1.13951790312500 7.32221383437500 
 N -5.22611664062500 4.61401690312500 7.43292383437500 
 S -5.07244364062500 0.463742903125000 5.96842983437500 
 S -5.86257764062500 3.96236790312500 5.99074283437500 
 S -2.31936164062500 1.64193890312500 3.00544083437500 
 S -2.96001364062500 5.10599190312500 3.17436683437500 
 S -3.00496964062500 1.97958090312500 7.08005483437500 
 S -3.72813964062500 5.23809190312500 7.30370483437500 
