16

 C -2.92025461875000 1.27470680625000 5.32426424062500 
 C -2.90793261875000 5.13198880625000 5.62612524062500 
 C -4.10049461875000 0.667582806250000 4.63247024062500 
 C -4.12422461875000 4.54733680625000 5.14523924062500 
 N -1.96266561875000 1.59947480625000 4.46795624062500 
 N -2.01306361875000 5.35594080625000 4.67688224062500 
 N -4.00983261875000 0.658542806250000 3.29363624062500 
 N -4.15429961875000 4.29198180625000 3.85143424062500 
 N -4.72401861875000 0.674839806250001 7.17884624062500 
 N -4.36574861875000 4.89633680625000 7.71670424062500 
 S -5.44885261875000 0.267244806250000 5.69292824062500 
 S -5.32570461875000 4.49545880625000 6.44134924062500 
 S -2.47742761875000 1.25134280625000 2.94701124062500 
 S -2.64843661875000 4.83547080625000 3.26857024062500 
 S -3.17413761875000 1.31918780625000 7.05181224062500 
 S -2.81325061875000 5.27000280625000 7.30477324062500 
