16

 C -3.26926888437500 0.869609243750001 5.45657651562500 
 C -3.35309088437500 5.05254024375000 5.52608251562500 
 C -4.51671088437500 0.668389243750001 4.81208951562500 
 C -4.52940788437500 4.56915924375000 4.81672351562500 
 N -2.22804088437500 1.06696124375000 4.63221851562500 
 N -2.32175788437500 5.36369824375000 4.80898751562500 
 N -4.37445888437500 0.619758243750001 3.50177251562500 
 N -4.31620488437500 4.48626124375000 3.49326551562500 
 N -5.07689988437500 0.673695243750001 7.26021351562500 
 N -4.99912388437500 4.46442424375000 7.40683951562500 
 S -5.88230088437500 0.517636243750001 5.81027651562500 
 S -5.81904188437500 4.31533724375000 5.99622251562500 
 S -2.85878088437500 0.985967243750001 3.07620951562500 
 S -2.76178088437500 4.96144624375000 3.22790351562500 
 S -3.44083788437500 0.816874243750001 7.18377051562500 
 S -3.44443588437500 5.08134424375000 7.22176051562500 
