16

 C -3.13938173437500 1.12255106875000 5.57205592187500 
 C -2.98449973437500 5.05162806875000 5.60369492187500 
 C -4.31449673437500 0.696875068750001 4.87808292187500 
 C -4.17724273437500 4.57766106875000 4.90952392187500 
 N -2.03305873437500 1.20592406875000 4.84298092187500 
 N -1.94861173437500 5.28642306875000 4.83354292187500 
 N -4.07332073437500 0.409410068750001 3.58312392187500 
 N -3.94809573437500 4.33325606875000 3.59843192187500 
 N -4.99567273437500 1.02763206875000 7.33356092187500 
 N -4.67468773437500 4.74770706875000 7.49645192187500 
 S -5.71759373437500 0.513262068750000 5.93541092187500 
 S -5.45800073437500 4.30527706875000 6.09301492187500 
 S -2.42057973437500 0.851567068750001 3.28430292187500 
 S -2.40167773437500 4.91641206875000 3.28054992187500 
 S -3.35138073437500 1.27299806875000 7.25009392187500 
 S -3.15351173437500 5.35685706875000 7.32272792187500 
