16

 C -2.83306211562500 1.37643069062500 5.81165965625000 
 C -3.26569711562500 5.12147469062500 5.66284665625000 
 C -4.12980711562500 1.31870869062500 5.14548565625000 
 C -4.54003011562500 4.86986569062500 4.97098665625000 
 N -1.77761511562500 1.39797369062500 4.98588365625000 
 N -2.24253311562500 5.20474169062500 4.84332165625000 
 N -4.08005111562500 1.27240369062500 3.79843865625000 
 N -4.50248111562500 4.78586769062500 3.64497765625000 
 N -4.58313011562500 1.39457369062500 7.67079865625000 
 N -5.09661011562500 4.88091569062500 7.46966465625000 
 S -5.45075911562500 1.26892769062500 6.29896565625000 
 S -5.85486911562500 4.66289869062500 6.01511065625000 
 S -2.48740211562500 1.33727169062500 3.46956665625000 
 S -2.88457411562500 4.93039969062500 3.32227665625000 
 S -2.94778111562500 1.54320869062500 7.52617665625000 
 S -3.43964611562500 5.12608769062500 7.40230865625000 
