16

 C -3.18171262500000 0.853420562499998 5.42837075000000 
 C -3.20769562500000 4.54933256250000 5.53346375000000 
 C -4.45086862500000 0.536842562499997 4.81796675000000 
 C -4.51551662500000 4.64666256250000 4.92818375000000 
 N -2.23546662500000 1.27007356250000 4.55632175000000 
 N -2.16951462500000 4.44690656250000 4.73402175000000 
 N -4.43645862500000 0.698422562499998 3.49659275000000 
 N -4.44959062500000 4.70973056250000 3.57766775000000 
 N -4.86766062500000 0.426639562499997 7.33828575000000 
 N -4.84160762500000 4.67797356250000 7.51891075000000 
 S -5.69488462500000 0.231329562499997 5.94183175000000 
 S -5.84038762500000 4.63367556250000 6.15109375000000 
 S -2.93766562500000 1.16088156250000 3.02942575000000 
 S -2.84629062500000 4.63339956250000 3.21931875000000 
 S -3.27453362500000 0.907119562499997 7.17459375000000 
 S -3.17257762500000 4.79070656250000 7.25649275000000 
