16

 C -3.27447097500000 1.19521533750000 5.54161888750000 
 C -3.03030097500000 5.07538533750000 5.46114588750000 
 C -4.57022997500000 0.894773337499998 4.95810188750000 
 C -4.24117997500000 4.79861233750000 4.74901588750000 
 N -2.29737697500000 1.35027933750000 4.63173388750000 
 N -1.98428697500000 5.23099133750000 4.67072288750000 
 N -4.58288197500000 0.632106337499999 3.63294188750000 
 N -4.14301897500000 4.78467933750000 3.42793588750000 
 N -4.81731897500000 0.792487337499999 7.51049288750000 
 N -4.80840997500000 4.62337733750000 7.26573688750000 
 S -5.82676097500000 0.848089337499998 6.17380188750000 
 S -5.63397597500000 4.62291133750000 5.85157388750000 
 S -3.05131397500000 1.04298333750000 3.17381688750000 
 S -2.52209397500000 5.02361033750000 3.08161788750000 
 S -3.24875997500000 1.46609033750000 7.30626188750000 
 S -3.25813297500000 5.14414633750000 7.15707388750000 
