16

 C -2.90057102812500 1.57218714062500 5.58445943125000 
 C -3.00138802812500 5.28738814062500 5.53641443125000 
 C -4.09247502812500 1.03870214062500 4.99895843125000 
 C -4.24136502812500 4.93312514062500 4.90727243125000 
 N -1.92221702812500 1.74991114062500 4.69231643125000 
 N -1.98588702812500 5.33719314062500 4.68283643125000 
 N -4.04807702812500 0.856895140624997 3.68083743125000 
 N -4.20089602812500 4.85702914062500 3.58277843125000 
 N -4.78705802812500 1.47801214062500 7.38188543125000 
 N -4.88098002812500 5.32407114062500 7.41860943125000 
 S -5.48847902812500 0.827061140624997 6.00509243125000 
 S -5.61938202812500 4.81227614062500 5.99735743125000 
 S -2.50509502812500 1.34083014062500 3.21934643125000 
 S -2.60066702812500 4.99118814062500 3.18963243125000 
 S -3.22247902812500 1.98988714062500 7.27141243125000 
 S -3.24710702812500 5.66687414062500 7.20346643125000 
