16

 C -3.13900296562500 1.63251103125000 5.46229580000000 
 C -3.65116296562500 4.90404403125000 5.03549680000000 
 C -4.23790096562500 0.767814031249998 4.97294880000000 
 C -4.76989896562500 4.26198403125000 4.39664780000000 
 N -2.15218196562500 1.82135303125000 4.59992480000000 
 N -2.63235196562500 5.21280103125000 4.22980680000000 
 N -3.99055096562500 0.312327031249998 3.73516680000000 
 N -4.50003596562500 3.96962303125000 3.12012380000000 
 N -4.87986896562500 1.37548203125000 7.42071080000000 
 N -5.39987796562500 4.72434103125000 6.84874780000000 
 S -5.54120396562500 0.483714031249998 6.17727680000000 
 S -6.01193796562500 3.85266603125000 5.55134880000000 
 S -2.60427096562500 1.11332903125000 3.14876480000000 
 S -3.02733796562500 4.59097203125000 2.74060780000000 
 S -3.39240596562500 2.04630803125000 7.13396580000000 
 S -3.84526096562500 5.22670103125000 6.73171580000000 
