16

 C -3.17476407500000 1.29489329687500 5.61664878125000 
 C -3.14736607500000 4.93984529687500 5.58178678125000 
 C -4.43505107500000 0.766201296874998 5.13869678125000 
 C -4.38073407500000 4.41179829687500 5.01435278125000 
 N -2.18253007500000 1.35173929687500 4.74079378125000 
 N -2.08653107500000 4.99060429687500 4.79912678125000 
 N -4.39461107500000 0.471493296874998 3.83243578125000 
 N -4.23286807500000 4.22323929687500 3.70555078125000 
 N -4.79440807500000 1.22995129687500 7.60781178125000 
 N -4.91053607500000 4.90650929687500 7.54065778125000 
 S -5.72275807500000 0.864130296874999 6.28259478125000 
 S -5.73004507500000 4.30603129687500 6.16437278125000 
 S -2.82739407500000 0.730388296874998 3.34749778125000 
 S -2.60160607500000 4.43210829687500 3.30055778125000 
 S -3.26025907500000 1.66599729687500 7.22587278125000 
 S -3.22259507500000 5.15819229687500 7.32816778125000 
