16

 C -2.98692168125000 1.28216817187500 5.67041907812500 
 C -2.99087168125000 5.17142717187500 5.40685007812500 
 C -4.18402568125000 0.795417171875003 5.01516307812500 
 C -4.03099568125000 4.31165517187500 4.98381307812500 
 N -1.93774568125000 1.45402317187500 4.85794707812500 
 N -1.99950668125000 5.20342217187500 4.49262307812500 
 N -4.07810568125000 0.683239171875003 3.66179707812500 
 N -3.97360668125000 3.87373917187500 3.72500007812500 
 N -4.73789568125000 0.976880171875004 7.50273907812500 
 N -4.83183268125000 5.18411217187500 7.29899007812500 
 S -5.55781568125000 0.764203171875003 6.04297007812500 
 S -5.41984968125000 4.17298717187500 6.07583807812500 
 S -2.52380668125000 0.978815171875003 3.33127707812500 
 S -2.51162968125000 4.37315717187500 3.16698807812500 
 S -3.21630968125000 1.59128817187500 7.39727807812500 
 S -3.22042768125000 5.65639517187500 7.02775707812500 
