16

 C -3.17336435937500 1.55767882500000 5.45001374687500 
 C -2.98957635937500 5.11232982500000 5.53275974687500 
 C -4.46836735937500 1.43574682500000 4.78726674687500 
 C -4.26907835937500 4.86458882500000 4.90043474687500 
 N -2.11340935937500 1.51579382500000 4.63343374687500 
 N -1.98611435937500 5.26415382500000 4.65040874687500 
 N -4.39977635937500 1.52209082500000 3.45642274687500 
 N -4.26075735937500 4.99005882500000 3.56850174687500 
 N -4.86387335937500 1.50318282500000 7.38786474687500 
 N -4.76732435937500 4.63616082500000 7.42628374687500 
 S -5.76289135937500 1.38563882500000 6.04028174687500 
 S -5.54000035937500 4.39944482500000 5.96541674687500 
 S -2.80644435937500 1.70317682500000 3.10407174687500 
 S -2.72056835937500 5.29520782500000 3.14258774687500 
 S -3.22492335937500 1.66470082500000 7.17396774687500 
 S -3.10357535937500 5.02495682500000 7.29423274687500 
