16

 C -3.15395315000000 1.29118943750000 5.27912052500000 
 C -2.87316315000000 5.01918143750000 5.66844152500000 
 C -4.28304915000000 0.792639437500003 4.62617452500000 
 C -4.07598515000000 4.47555243750000 5.14066952500000 
 N -2.14082915000000 1.57670543750000 4.50713752500000 
 N -1.93310515000000 5.23532243750000 4.72367252500000 
 N -4.09648315000000 0.661651437500003 3.33931352500000 
 N -4.05853215000000 4.21506343750000 3.83624852500000 
 N -4.83419115000000 0.732303437500003 7.07462152500000 
 N -4.52407115000000 4.62891743750000 7.66303652500000 
 S -5.60702415000000 0.299115437500003 5.62846052500000 
 S -5.41488115000000 4.49846643750000 6.23952552500000 
 S -2.62768815000000 1.31040943750000 2.98935452500000 
 S -2.64500815000000 4.81459243750000 3.29536852500000 
 S -3.32492415000000 1.39403543750000 6.99620652500000 
 S -2.96173915000000 5.13596043750000 7.38660052500000 
