16

 C -3.01703289687500 1.27614380000000 5.64407408750000 
 C -3.10716389687500 5.05667080000000 5.52732608750000 
 C -4.26285789687500 0.798974799999999 5.00368108750000 
 C -4.25553089687500 4.42960280000000 4.90219608750000 
 N -1.98094589687500 1.31304680000000 4.79287708750000 
 N -2.06789989687500 5.18360480000000 4.71324008750000 
 N -4.12687989687500 0.364619799999999 3.74805908750000 
 N -4.01116289687500 4.00853580000000 3.67127108750000 
 N -4.80912489687500 1.17398880000000 7.46062808750000 
 N -4.85022489687500 4.88984780000000 7.43940108750000 
 S -5.56725889687500 0.687622799999999 6.07499208750000 
 S -5.60217089687500 4.33515480000000 6.05421408750000 
 S -2.55384489687500 0.723180799999999 3.39725508750000 
 S -2.44086289687500 4.49871280000000 3.27891208750000 
 S -3.23464489687500 1.63091580000000 7.34917608750000 
 S -3.30660489687500 5.34793080000000 7.20485608750000 
