16

 C -3.18314010937500 1.47873104062500 5.63017922812500 
 C -3.47118510937500 5.26222904062500 5.44392522812500 
 C -4.37553210937500 0.852032040624998 5.06242622812500 
 C -4.61825110937500 4.58912404062500 4.84313122812500 
 N -2.19473710937500 1.72898104062500 4.75722922812500 
 N -2.47262810937500 5.59553504062500 4.66393022812500 
 N -4.28398610937500 0.637973040624998 3.76469922812500 
 N -4.43706910937500 4.41658804062500 3.56556922812500 
 N -4.90114610937500 0.823058040624998 7.59448922812500 
 N -5.37168310937500 4.98152604062500 7.25048022812500 
 S -5.64983110937500 0.444481040624998 6.21618022812500 
 S -5.89679110937500 4.10006504062500 5.89486122812500 
 S -2.77696310937500 1.23323104062500 3.27939122812500 
 S -2.91467310937500 4.99073504062500 3.17202322812500 
 S -3.42123310937500 1.56132204062500 7.37684222812500 
 S -3.85955910937500 5.63783504062500 7.15795222812500 
