16

 C -3.09713548750000 1.14198770625000 5.49779154375000 
 C -3.14855348750000 5.54782670625000 5.49363354375000 
 C -4.38894348750000 0.876734706250000 4.83937554375000 
 C -4.20552548750000 4.76556370625000 4.88357754375000 
 N -2.04520348750000 1.23963570625000 4.63750054375000 
 N -2.08394348750000 5.76385070625000 4.70657254375000 
 N -4.29008448750000 0.922721706250000 3.51706354375000 
 N -3.99688348750000 4.46196870625000 3.60771154375000 
 N -4.79181148750000 1.01131570625000 7.40380654375000 
 N -5.05497048750000 5.31257570625000 7.19874954375000 
 S -5.68023648750000 0.795405706250000 6.02794754375000 
 S -5.60485048750000 4.40598970625000 5.89474154375000 
 S -2.67117248750000 0.953655706250000 3.08615454375000 
 S -2.50090048750000 5.06978770625000 3.20310154375000 
 S -3.17571548750000 1.36321470625000 7.17762254375000 
 S -3.53082648750000 5.95480570625000 7.11972054375000 
