16

 C -3.13157282500000 1.42570417812500 5.43864557812500 
 C -3.00943282500000 5.09260817812500 5.50223657812500 
 C -4.43226982500000 1.36793117812500 4.80492557812500 
 C -4.28363982500000 4.90887717812500 4.84806457812500 
 N -2.11635082500000 1.66938917812500 4.60475557812500 
 N -2.01586182500000 5.41774517812500 4.67555457812500 
 N -4.36381882500000 1.44094517812500 3.48670257812500 
 N -4.22782682500000 5.02319217812500 3.51710957812500 
 N -4.87210882500000 1.42008717812500 7.31826557812500 
 N -4.70125882500000 4.83733917812500 7.40419157812500 
 S -5.78147682500000 1.31676217812500 5.87180257812500 
 S -5.58619882500000 4.55098917812500 6.04756957812500 
 S -2.74829382500000 1.61677517812500 3.10577957812500 
 S -2.62537782500000 5.27697217812500 3.14331657812500 
 S -3.22612082500000 1.62358417812500 7.14169957812500 
 S -3.10521182500000 5.04901417812500 7.20051357812500 
