16

 C -2.99211728750000 1.24444520000000 5.57386454687500 
 C -2.91233528750000 5.15024620000000 5.63238154687500 
 C -4.16518428750000 0.848935200000001 4.84964754687500 
 C -4.07647428750000 4.50917520000000 5.04366654687500 
 N -1.91238928750000 1.39908620000000 4.77333954687500 
 N -1.91776228750000 5.42845920000000 4.78108954687500 
 N -4.01363128750000 0.524835200000001 3.56621454687500 
 N -3.99406428750000 4.32502420000000 3.74763554687500 
 N -4.81414028750000 0.979195200000001 7.28447554687500 
 N -4.68776128750000 4.64795220000000 7.46015154687500 
 S -5.54211328750000 0.654723200000001 5.81937854687500 
 S -5.46386528750000 4.33962420000000 6.02152854687500 
 S -2.43777528750000 0.828263200000001 3.29710754687500 
 S -2.46491328750000 4.88210220000000 3.30735854687500 
 S -3.20489228750000 1.29480420000000 7.27896154687500 
 S -3.18463128750000 5.36327220000000 7.33844854687500 
