16

 C -3.30043599687500 1.24306200000000 5.99594318750000 
 C -3.03771599687500 4.79253700000000 5.26886918750000 
 C -4.48392699687500 0.754708000000000 5.24539018750000 
 C -4.30716699687500 4.68635700000000 4.59028218750000 
 N -2.20825499687500 1.49290300000000 5.23953618750000 
 N -1.98148999687500 4.94265300000000 4.44882418750000 
 N -4.28906099687500 0.734267000000000 3.92271218750000 
 N -4.16251399687500 4.44766400000000 3.28696618750000 
 N -5.22273499687500 0.714500000000001 7.72213518750000 
 N -4.78668299687500 4.71950200000000 7.12867218750000 
 S -5.86591199687500 0.385160000000000 6.23252318750000 
 S -5.58205699687500 4.54488000000000 5.66176918750000 
 S -2.72483099687500 1.23129300000000 3.68057118750000 
 S -2.57304499687500 4.75458400000000 2.88506718750000 
 S -3.64295099687500 1.25024700000000 7.65804818750000 
 S -3.15125599687500 4.97680100000000 7.00256818750000 
