16

 C -3.16429460000000 1.42369191875000 5.53938122812500 
 C -3.15592260000000 4.93599591875000 5.20609722812500 
 C -4.47960860000000 1.05145291875000 4.97363822812500 
 C -4.25176660000000 4.17086891875000 4.69827922812500 
 N -2.18241660000000 1.49965991875000 4.65580622812500 
 N -2.22592660000000 5.19829891875000 4.30245122812500 
 N -4.46040660000000 0.741429918750001 3.68923122812500 
 N -4.13700360000000 3.87010491875000 3.40709422812500 
 N -4.98047260000000 1.42244391875000 7.46081222812500 
 N -4.98873360000000 4.90423291875000 7.08004322812500 
 S -5.77711960000000 0.883933918750000 6.09738322812500 
 S -5.63478360000000 4.09269091875000 5.72257722812500 
 S -2.92526760000000 1.07890391875000 3.19089922812500 
 S -2.76312660000000 4.57208991875000 2.82298322812500 
 S -3.33319160000000 1.80078191875000 7.24057522812500 
 S -3.50978860000000 5.59321591875000 6.77650122812500 
