16

 C -3.16111151875000 1.36752324375000 5.52709189687500 
 C -2.91561351875000 5.21397524375000 5.87295489687500 
 C -4.34157351875000 0.999539243750003 4.90668089687500 
 C -4.08553951875000 4.75943824375000 5.17074489687500 
 N -2.15696451875000 1.67953324375000 4.73007989687500 
 N -1.87118151875000 5.50519724375000 5.10720689687500 
 N -4.20007651875000 0.804182243750003 3.60029689687500 
 N -3.85456651875000 4.53985024375000 3.88900189687500 
 N -4.86744951875000 0.824927243750003 7.31310489687500 
 N -4.79136251875000 4.82401324375000 7.66369489687500 
 S -5.67717651875000 0.689893243750003 5.88191989687500 
 S -5.53500951875000 4.70542124375000 6.18629389687500 
 S -2.71607751875000 1.45287324375000 3.19143689687500 
 S -2.32779551875000 5.12818624375000 3.57215589687500 
 S -3.25903551875000 1.35882224375000 7.27581189687500 
 S -3.18050951875000 5.35080624375000 7.54302689687500 
