16

 C -3.21551072812500 1.57240970937500 5.83992139062500 
 C -3.04778272812500 5.15495970937500 5.78039339062500 
 C -4.42052872812500 1.13030470937500 5.25658539062500 
 C -4.27362272812500 4.67655470937500 5.13284439062500 
 N -2.16214972812500 1.60232370937500 5.03596639062500 
 N -2.01432372812500 5.38118170937500 4.96303439062500 
 N -4.31172872812500 0.809087709374999 3.94682139062500 
 N -4.15006772812500 4.50287670937500 3.81089939062500 
 N -5.02132272812500 1.31382370937500 7.74027839062500 
 N -4.84980972812500 4.98484370937500 7.57249439062500 
 S -5.78936272812500 0.883279709374999 6.32825139062500 
 S -5.58456072812500 4.30616970937500 6.21458139062500 
 S -2.79885172812500 1.23858370937500 3.53503939062500 
 S -2.56907872812500 4.93596370937500 3.43326639062500 
 S -3.39789572812500 1.80386570937500 7.54538339062500 
 S -3.29408672812500 5.36231770937500 7.54707339062500 
