16

 C -3.20676360937500 1.42810302812500 5.61185234687500 
 C -3.34876460937500 5.10822402812500 5.39951334687500 
 C -4.35601460937500 0.835449028125002 4.89914734687500 
 C -4.55249560937500 4.72985302812500 4.73581134687500 
 N -2.13936060937500 1.67322802812500 4.82604034687500 
 N -2.32594260937500 5.45284802812500 4.65023034687500 
 N -4.17490060937500 0.739192028125003 3.56583634687500 
 N -4.41030560937500 4.79919202812500 3.41464334687500 
 N -5.04253360937500 1.21223702812500 7.41438834687500 
 N -5.12883760937500 4.82941802812500 7.30926534687500 
 S -5.69718060937500 0.610433028125002 6.03998734687500 
 S -5.88166960937500 4.42643902812500 5.88515334687500 
 S -2.62081760937500 1.20494402812500 3.29654634687500 
 S -2.84733160937500 5.18196802812500 3.09109634687500 
 S -3.42925760937500 1.60391202812500 7.35620934687500 
 S -3.50426460937500 5.27243502812500 7.08695734687500 
