16

 C -3.29915348750000 1.52075942500000 5.61249400937500 
 C -2.98519848750000 5.33559242500000 5.91109800937500 
 C -4.30867148750000 0.848443425000000 4.87034600937500 
 C -4.15869248750000 4.73522442500000 5.34714500937500 
 N -2.37879948750000 2.10450942500000 4.81820400937500 
 N -2.10182448750000 5.61679342500000 4.97381200937500 
 N -4.08764048750000 0.707176424999999 3.55148000937500 
 N -4.15415348750000 4.50672542500000 4.06389000937500 
 N -5.02425848750000 1.11280842500000 7.40838100937500 
 N -4.74823848750000 5.05920742500000 7.87044000937500 
 S -5.66737948750000 0.548438425000000 6.00350100937500 
 S -5.44328148750000 4.58709142500000 6.42005200937500 
 S -2.59662048750000 1.55392542500000 3.28075900937500 
 S -2.77223548750000 5.11731042500000 3.49977400937500 
 S -3.48167548750000 1.74409342500000 7.25582200937500 
 S -3.16158448750000 5.46727542500000 7.66280900937500 
