16

 C -3.24175508125000 1.29594318750000 5.39168056562500 
 C -3.18443908125000 5.36723418750000 5.75321156562500 
 C -4.44272708125000 0.722749187500001 4.79605256562500 
 C -4.34691908125000 5.19147718750000 4.94028756562500 
 N -2.29279808125000 1.66079818750000 4.50032956562500 
 N -2.08875608125000 5.59113918750000 5.04106256562500 
 N -4.30043408125000 0.604686187500000 3.48311856562500 
 N -4.16031408125000 5.00461818750000 3.61420756562500 
 N -5.12858208125000 1.18238318750000 7.17081656562500 
 N -5.17351108125000 5.20044218750000 7.43373756562500 
 S -5.81124408125000 0.370719187500001 5.86879456562500 
 S -5.76028008125000 5.08063418750000 5.89745756562500 
 S -2.77651308125000 1.11472018750000 3.05357256562500 
 S -2.53094808125000 5.36809118750000 3.48653956562500 
 S -3.53403808125000 1.48683118750000 7.11454256562500 
 S -3.48349408125000 5.49603718750000 7.42577556562500 
