16

 C -3.29844586250000 1.42265377812500 5.77841716250000 
 C -2.90674286249999 4.96332777812500 5.61608316250000 
 C -4.59656386249999 0.989356778125000 5.31233316250000 
 C -4.15450986249999 4.58393777812500 4.99163716250000 
 N -2.25875386249999 1.36716977812500 4.96854516250000 
 N -1.92916086250000 5.13641777812500 4.76240216250000 
 N -4.45914286249999 0.561344778124999 4.02179016250000 
 N -4.09836386249999 4.54802277812500 3.68176616250000 
 N -4.76264986249999 1.51657077812500 7.85803016250000 
 N -4.84275586250000 4.73184477812500 7.41506716250000 
 S -5.79201286249999 1.15610777812500 6.57060816250000 
 S -5.51362686250000 4.40871677812500 5.95406916250000 
 S -2.90185486250000 0.918380778125000 3.52526316250000 
 S -2.57832186250000 4.89105477812500 3.21174116250000 
 S -3.13582986250000 1.69753177812500 7.41673616250000 
 S -3.17686386249999 5.01028577812500 7.41746116250000 
