16

 C -3.07724550312500 1.07861486562500 5.47161979375000 
 C -3.17151150312500 4.81218886562500 5.45849479375000 
 C -4.26435150312500 0.662553865625003 4.77743679375000 
 C -4.44988350312500 4.69062286562500 4.83704379375000 
 N -2.10575350312500 1.33183686562500 4.61686479375000 
 N -2.08560850312500 4.78354486562500 4.69243779375000 
 N -4.16411550312500 0.597161865625003 3.45521779375000 
 N -4.35282950312500 4.40661486562500 3.56174579375000 
 N -4.91061950312500 0.590329865625003 7.29898879375000 
 N -4.82187450312500 5.06123386562500 7.41682979375000 
 S -5.57592650312500 0.291852865625003 5.80309479375000 
 S -5.71422350312500 4.95625186562500 6.03909579375000 
 S -2.64005250312500 0.952519865625003 3.05008579375000 
 S -2.77470350312500 4.48421286562500 3.18509479375000 
 S -3.27762350312500 1.05788886562500 7.21703679375000 
 S -3.17598550312500 4.87561986562500 7.15625979375000 
