16

 C -2.98820602812500 1.30439285000000 5.63904587812500 
 C -3.09086702812500 5.06873585000000 5.54273187812500 
 C -4.21278702812500 0.785563850000001 4.97273387812500 
 C -4.22614102812500 4.42440885000000 4.93055987812500 
 N -1.92722102812500 1.34077285000000 4.81396087812500 
 N -2.07019202812500 5.28227285000000 4.71095487812500 
 N -4.08281102812500 0.336665850000001 3.69989287812500 
 N -4.02639802812500 3.97805285000000 3.68041787812500 
 N -4.83494802812500 1.23600385000000 7.44879987812500 
 N -4.84806702812500 4.87020185000000 7.47639187812500 
 S -5.56537502812500 0.679668850000001 6.04895787812500 
 S -5.60752602812500 4.37247685000000 6.05869187812500 
 S -2.52672902812500 0.718133850000001 3.37725087812500 
 S -2.44208602812500 4.52958885000000 3.28116987812500 
 S -3.24834502812500 1.61782885000000 7.32878587812500 
 S -3.27185702812500 5.35209185000000 7.26819087812500 
