16

 C -3.17279478437500 1.24383477500000 5.73164217187500 
 C -3.12111978437500 5.24242777500000 5.58813717187500 
 C -4.47641978437500 0.998687774999999 5.12670817187500 
 C -4.30391478437500 4.67160477500000 4.98264417187500 
 N -2.21433578437500 1.22650077500000 4.82144617187500 
 N -2.16918478437500 5.49991577500000 4.69648017187500 
 N -4.42886178437500 0.685458774999999 3.82330517187500 
 N -4.29682178437500 4.55984877500000 3.64668417187500 
 N -4.94765878437500 1.47996177500000 7.61234017187500 
 N -4.97389778437500 5.06359977500000 7.44540917187500 
 S -5.76468778437500 1.15350077500000 6.25832617187500 
 S -5.71489278437500 4.52964777500000 6.02262517187500 
 S -2.84691678437500 0.933857774999999 3.34306017187500 
 S -2.78386578437500 5.06697477500000 3.20191517187500 
 S -3.31011178437500 1.51563877500000 7.50063817187500 
 S -3.33087078437500 5.43622577500000 7.30687817187500 
