16

 C -2.96705962812500 1.42483760625000 5.47471220312500 
 C -3.00538562812500 5.18641160625000 5.43722320312500 
 C -4.11521862812500 0.818393606249995 4.76329020312500 
 C -4.29044062812500 4.85586160625000 4.86294920312500 
 N -1.98026662812500 1.64292060625000 4.62705020312500 
 N -1.94929062812500 5.26692460625000 4.63088620312500 
 N -3.92771962812500 0.523269606249996 3.50583320312500 
 N -4.16640562812500 4.66415960625000 3.51070920312500 
 N -4.98370662812500 1.01575160625000 7.09421120312500 
 N -4.67601162812500 5.07238460625000 7.46778520312500 
 S -5.61987662812500 0.546638606249997 5.67014520312500 
 S -5.64339162812500 5.01259660625000 6.09290720312500 
 S -2.51125362812500 1.14912860625000 3.09853520312500 
 S -2.56168362812500 4.95945660625000 3.13390720312500 
 S -3.37608362812500 1.33905560625000 7.23535320312500 
 S -2.92608162812500 5.39237660625000 7.16131220312500 
