16

 C -3.39159458437500 1.68846770312500 5.59380610937500 
 C -3.09202758437500 5.17243770312500 5.60421210937500 
 C -4.63530258437500 1.26980770312500 4.95186210937500 
 C -4.36971458437500 4.99038470312500 5.01143210937500 
 N -2.35167458437500 1.77618570312500 4.73616410937500 
 N -2.03872458437500 5.17418670312500 4.81410410937500 
 N -4.54437558437500 1.10488670312500 3.63873510937500 
 N -4.32760258437500 4.82729370312500 3.70944310937500 
 N -5.25775958437500 1.46056770312500 7.33892310937500 
 N -4.64106758437500 5.23222470312500 7.64483910937500 
 S -5.96024058437500 0.979612703125001 5.93396710937500 
 S -5.55099858437500 4.95176970312500 6.35329410937500 
 S -2.99436558437500 1.51178670312500 3.16128910937500 
 S -2.71690758437500 4.97498870312500 3.28839110937500 
 S -3.62523758437500 1.77676970312500 7.36015010937500 
 S -2.99149558437500 5.26519370312500 7.32060510937500 
