16

 C -3.09250211875000 0.916723300000000 5.74306818437500 
 C -3.27766511875000 5.20964530000000 5.58538518437500 
 C -4.34412411875000 0.625584300000001 5.04805418437500 
 C -4.32919411875000 4.45852630000000 4.99270818437500 
 N -2.04188311875000 1.15285930000000 4.95732818437500 
 N -2.25845611875000 5.53140830000000 4.79032918437500 
 N -4.23664011875000 0.636901300000001 3.70595618437500 
 N -4.22267611875000 4.42030130000000 3.67115318437500 
 N -4.96108511875000 0.960224300000000 7.54882618437500 
 N -5.08780511875000 4.79378230000000 7.37762318437500 
 S -5.69285411875000 0.584407300000001 6.10836218437500 
 S -5.58606611875000 3.87363030000000 6.05190618437500 
 S -2.64183111875000 0.926612300000000 3.43530818437500 
 S -2.78541411875000 5.09834730000000 3.25933518437500 
 S -3.27435911875000 1.18813730000000 7.46795318437500 
 S -3.48168911875000 5.25809030000000 7.30779718437500 
