16

 C -3.20910411562500 1.55681411562500 5.37737865937500 
 C -3.05055011562500 5.03578911562500 5.41619965937500 
 C -4.38679711562500 1.13320211562500 4.68183865937500 
 C -4.32028411562500 4.90889511562500 4.71040565937500 
 N -2.20606611562500 1.79046511562500 4.53522265937500 
 N -1.99884411562500 5.13620711562500 4.60376365937500 
 N -4.25831911562500 0.941523115625001 3.37197365937500 
 N -4.26633211562500 4.97519311562500 3.39299265937500 
 N -5.01529111562500 1.17167011562500 7.14589465937500 
 N -4.81499311562500 4.96671511562500 7.26873465937500 
 S -5.75436411562500 0.834393115625002 5.68991665937500 
 S -5.59981611562500 4.76472011562500 5.84101565937500 
 S -2.71726411562500 1.52787111562500 2.98418165937500 
 S -2.61937411562500 5.07775611562500 3.06005765937500 
 S -3.35709011562500 1.60980611562500 7.11666065937500 
 S -3.23328911562500 4.82903911562500 7.20851565937500 
