16

 C -3.05905587812500 1.53347802812500 5.71357608125000 
 C -3.09241487812500 4.83462202812500 5.64694508125000 
 C -4.21680787812500 1.18623202812500 4.93019608125000 
 C -4.24887987812500 4.41481202812500 4.81486408125000 
 N -1.86610087812500 1.53781402812500 5.06545508125000 
 N -1.99889187812500 4.88680002812500 4.89884508125000 
 N -3.89019487812500 0.960401028124998 3.63502408125000 
 N -4.05100887812500 4.02608602812500 3.55462708125000 
 N -4.96756587812500 1.30574002812500 7.45500108125000 
 N -5.21879587812500 4.74051602812500 7.12517408125000 
 S -5.70050287812500 1.12674002812500 5.98501608125000 
 S -5.77301487812500 4.38159502812500 5.61606808125000 
 S -2.25818587812500 1.33767702812500 3.47386408125000 
 S -2.45231987812500 4.34021802812500 3.37287308125000 
 S -3.26482887812500 1.57564402812500 7.39030008125000 
 S -3.55761787812500 4.99790702812500 7.31548008125000 
