16

 C -3.22082077500000 1.47008314687500 5.62038135937500 
 C -3.53419577500000 5.32060214687500 5.49584235937500 
 C -4.40523377500000 0.827383146874999 5.08010035937500 
 C -4.56791277500000 4.56248014687500 4.88735935937500 
 N -2.27077377500000 1.76869614687500 4.75378735937500 
 N -2.46583577500000 5.60536414687500 4.71733835937500 
 N -4.34040977500000 0.722107146874999 3.75233235937500 
 N -4.47801677500000 4.46694014687500 3.54901035937500 
 N -4.88677377500000 0.876758146874999 7.58014435937500 
 N -5.38651977500000 4.96727514687500 7.28274735937500 
 S -5.68372977500000 0.473389146874998 6.19102635937500 
 S -5.91658377500000 4.10405914687500 5.90322735937500 
 S -2.78165677500000 1.25593914687500 3.28216235937500 
 S -2.95023077500000 5.01373114687500 3.20531035937500 
 S -3.37848677500000 1.55709214687500 7.38949235937500 
 S -3.82897677500000 5.59677514687500 7.12993035937500 
