16

 C -3.09916223125000 1.47962201875000 5.45057187500000 
 C -3.36399823125000 5.28451401875000 5.22370087500000 
 C -4.26808223125000 0.734936018750000 4.93386387500000 
 C -4.33633123125000 4.40172301875000 4.64410687500000 
 N -2.17220623125000 1.69406801875000 4.50984687500000 
 N -2.43442223125000 5.66788301875000 4.35996887500000 
 N -4.16978823125000 0.464478018749999 3.60014187500000 
 N -4.11689523125000 4.06565501875000 3.38367487500000 
 N -4.78423723125000 1.29210501875000 7.39316587500000 
 N -5.21924323125000 4.92536101875000 7.01626987500000 
 S -5.53464023125000 0.612534018750000 6.13007587500000 
 S -5.70560123125000 4.11319301875000 5.65173087500000 
 S -2.74182623125000 1.02410601875000 3.06761887500000 
 S -2.76011923125000 4.79861101875000 2.98270587500000 
 S -3.23535223125000 1.76292201875000 7.15627187500000 
 S -3.68371823125000 5.65499301875000 6.90146287500000 
