16

 C -3.17502221875000 1.38990847500000 5.55910691250000 
 C -3.57121721875000 4.83654847500000 5.08431891250000 
 C -4.35314621875000 0.780494474999997 5.01039891250000 
 C -4.71196821875000 4.19977347500000 4.45861391250000 
 N -2.20936321875000 1.56909347500000 4.71020591250000 
 N -2.60862321875000 5.12333447500000 4.21328391250000 
 N -4.31128321875000 0.585427474999997 3.71145091250000 
 N -4.58315621875000 3.96935547500000 3.14890791250000 
 N -4.78245921875000 1.06776047500000 7.51614991250000 
 N -5.31369721875000 4.47089447500000 6.89657491250000 
 S -5.55199721875000 0.432976474999997 6.17576591250000 
 S -5.96317521875000 3.82447947500000 5.54388791250000 
 S -2.76393221875000 1.04780447500000 3.19584191250000 
 S -3.14052421875000 4.59676947500000 2.69392491250000 
 S -3.27841121875000 1.81113547500000 7.30049691250000 
 S -3.90519621875000 5.28403947500000 6.73666391250000 
