16

 C -3.17457239375000 1.44517512500000 5.43957597812500 
 C -2.99310439375000 5.09573612500000 5.50285097812500 
 C -4.46233239375000 1.40349712500000 4.84816597812500 
 C -4.27291539375000 4.87943712500000 4.88770897812500 
 N -2.16626139375000 1.60505112500000 4.62083797812500 
 N -1.98441039375000 5.37282012500000 4.67893897812500 
 N -4.39638839375000 1.45507412500000 3.54636197812500 
 N -4.25862739375000 5.03985012500000 3.55907097812500 
 N -4.86926739375000 1.45276112500000 7.32473797812500 
 N -4.72776039375000 4.77539912500000 7.44543597812500 
 S -5.77711939375000 1.34027012500000 5.91183597812500 
 S -5.58069939375000 4.48386612500000 6.01877497812500 
 S -2.73051839375000 1.66064112500000 3.09875597812500 
 S -2.63994439375000 5.28589812500000 3.12161997812500 
 S -3.21280739375000 1.63873512500000 7.11685097812500 
 S -3.10660739375000 5.03992412500000 7.21769797812500 
