16

 C -2.92732146250000 1.40395703437500 5.30316911250000 
 C -3.18006746250000 5.10366403437500 5.49968911250000 
 C -4.26513446250000 1.05917403437500 4.72750311250000 
 C -4.34233246250000 4.68245003437500 4.76873611250000 
 N -2.00995446250000 1.62092203437500 4.38096711250000 
 N -2.12478846250000 5.39995803437500 4.72107711250000 
 N -4.23763646250000 0.931643034375004 3.40239511250000 
 N -4.16022746250000 4.52712303437500 3.45279411250000 
 N -4.51548446250000 1.14831503437500 7.31941611250000 
 N -5.02719346250000 4.76238403437500 7.26007911250000 
 S -5.46412846250000 0.885888034375003 5.98190911250000 
 S -5.70413346250000 4.20338203437500 5.79763511250000 
 S -2.64663646250000 1.30593103437500 2.90453811250000 
 S -2.60789546250000 5.11616203437500 3.16805811250000 
 S -2.96726946250000 1.59013903437500 6.96845511250000 
 S -3.41939846250000 5.23603303437500 7.19055611250000 
