16

 C -3.20541216875000 1.31025565312500 5.19241863750000 
 C -3.30340716875000 5.09330865312500 5.39013263750000 
 C -4.48528916875000 0.946721653124999 4.68839363750000 
 C -4.57841616875000 4.66223665312500 4.87388163750000 
 N -2.23175816875000 1.26118965312500 4.29499763750000 
 N -2.32972216875000 5.18235265312500 4.56353163750000 
 N -4.50309016875000 0.504066653124998 3.44389963750000 
 N -4.48628816875000 4.47581865312500 3.56251063750000 
 N -4.96688916875000 1.12269965312500 7.20612763750000 
 N -4.78802016875000 4.83990065312500 7.40959163750000 
 S -5.75964516875000 0.806506653124997 5.75224963750000 
 S -5.77217316875000 4.56487665312500 6.15490263750000 
 S -2.96439616875000 0.760090653124998 2.84157163750000 
 S -2.89416716875000 4.79546665312500 3.08035063750000 
 S -3.35236416875000 1.49365465312500 6.96344563750000 
 S -3.26121416875000 5.27038865312500 7.05412063750000 
