16

 C -3.23209074687500 1.39940238125000 5.68149279687500 
 C -3.32489874687500 5.14486538125000 5.40921679687500 
 C -4.34094374687500 0.868888381250001 5.00473879687500 
 C -4.56000174687500 4.69900238125000 4.78483979687500 
 N -2.21427574687500 1.67793738125000 4.91020479687500 
 N -2.29040374687500 5.37046438125000 4.58382979687500 
 N -4.21575874687500 0.759803381250001 3.70358079687500 
 N -4.47329874687500 4.75353438125000 3.44460979687500 
 N -5.10733974687500 1.16340938125000 7.35329979687500 
 N -5.06796674687500 4.89551238125000 7.27878679687500 
 S -5.74451374687500 0.581326381250001 5.91661279687500 
 S -5.89239774687500 4.39811538125000 5.89137779687500 
 S -2.64233374687500 1.16362038125000 3.42155579687500 
 S -2.87717474687500 5.16581938125000 3.07031079687500 
 S -3.52787174687500 1.59661138125000 7.37124879687500 
 S -3.48954274687500 5.27850938125000 7.10944079687500 
