16

 C -3.20809627187500 1.31443896562500 5.68447610937500 
 C -3.52547127187500 5.34517396562500 5.36882010937500 
 C -4.28085127187500 0.620060965624999 5.04468710937500 
 C -4.51953327187500 4.43014496562500 4.82023310937500 
 N -2.23295227187500 1.61083096562500 4.83493210937500 
 N -2.39669427187500 5.56694796562500 4.62540810937500 
 N -4.20105027187500 0.481729965624999 3.70696710937500 
 N -4.26343727187500 4.16312596562500 3.52321710937500 
 N -4.83188627187500 0.816138965624999 7.51049110937500 
 N -5.29800527187500 4.99021596562500 7.26745510937500 
 S -5.59207727187500 0.321129965624999 6.12865310937500 
 S -5.80708227187500 4.14162396562500 5.88197810937500 
 S -2.64245927187500 1.12779996562500 3.36117810937500 
 S -2.80307927187500 4.89286796562500 3.13130410937500 
 S -3.34735527187500 1.66387396562500 7.40141010937500 
 S -3.81498527187500 5.73253196562500 7.04919110937500 
