16

 C -3.72982125937500 1.20951816875000 5.60348607187500 
 C -3.01492925937500 5.03560216875000 5.37041407187500 
 C -4.82106725937500 0.555587168750000 4.98729307187500 
 C -4.23090025937500 4.45837516875000 4.83535807187500 
 N -2.68595025937500 1.47004616875000 4.84906007187500 
 N -2.02557625937500 5.11534416875000 4.47888207187500 
 N -4.64946125937500 0.359873168749999 3.71481007187500 
 N -4.15714725937500 4.05420216875000 3.57027207187500 
 N -5.41885525937500 0.566659168749999 7.38104407187500 
 N -4.72570425937500 4.89195816875000 7.31420907187500 
 S -6.17746525937500 0.173862168749999 5.90235707187500 
 S -5.48074425937500 4.32480916875000 5.93183407187500 
 S -3.16558425937500 1.03734816875000 3.33091807187500 
 S -2.63626725937500 4.55656816875000 3.03845207187500 
 S -3.84891425937500 1.16833316875000 7.33081907187500 
 S -3.13105025937500 5.42787916875000 7.11160507187500 
