16

 C -3.16468942812500 1.62329717500000 5.38174110625000 
 C -3.03676642812500 4.93536317500000 5.48109310625000 
 C -4.31472842812500 1.16364517500000 4.68128910625000 
 C -4.29583642812500 4.74387117500000 4.77270610625000 
 N -2.12323342812500 1.95118717500000 4.58677410625000 
 N -2.00366442812500 5.12267917500000 4.68134010625000 
 N -4.21001842812500 1.19301017500000 3.35501310625000 
 N -4.16034142812500 4.72092517500000 3.46780110625000 
 N -4.99738542812500 1.07577417500000 7.21293310625000 
 N -4.87904342812500 4.98931417500000 7.36907310625000 
 S -5.73845642812500 0.907813174999998 5.76379610625000 
 S -5.68730542812500 4.67867617500000 5.89602910625000 
 S -2.65623442812500 1.59061717500000 3.03074910625000 
 S -2.56960542812500 4.99327017500000 3.11522210625000 
 S -3.43288942812500 1.63605017500000 7.07297410625000 
 S -3.17936542812500 4.94340617500000 7.18680310625000 
