16

 C -3.00732611562500 1.48830761562500 5.41845681875000 
 C -3.10500411562500 5.12791461562500 5.59791281875000 
 C -4.15045311562500 0.843150615624999 4.82867481875000 
 C -4.17400511562500 4.45302761562500 4.89277281875000 
 N -1.95203711562500 1.72442661562500 4.57498281875000 
 N -1.98400411562500 5.36147761562500 4.91047481875000 
 N -4.06450411562500 0.627777615625000 3.52304981875000 
 N -3.91041111562500 4.16541261562500 3.61085281875000 
 N -4.75379011562500 0.964218615625001 7.33364481875000 
 N -5.09108111562500 4.96061261562500 7.27335481875000 
 S -5.37859111562500 0.387617615625000 5.88983481875000 
 S -5.68045811562500 4.42155661562500 5.86146381875000 
 S -2.56569611562500 1.32625561562500 3.03919581875000 
 S -2.30832911562500 4.76508761562500 3.38124881875000 
 S -3.20261611562500 1.67856261562500 7.15101881875000 
 S -3.46832911562500 5.50561661562500 7.23124281875000 
