16

 C -3.20741871875000 1.17114394375000 5.37200613125000 
 C -3.02026171875000 5.32085394375000 5.62683713125000 
 C -4.34125071875000 0.518633943749998 4.79064113125000 
 C -4.26220471875000 4.77723194375000 4.99415313125000 
 N -2.07328071875000 1.26732094375000 4.65561513125000 
 N -2.04615071875000 5.44282394375000 4.73837513125000 
 N -4.09278171875000 -6.333056250000801E-003 3.58998013125000 
 N -4.18604471875000 4.44335494375000 3.75444213125000 
 N -5.03654071875000 1.19890694375000 7.24766813125000 
 N -4.93160771875000 5.15795494375000 7.44228813125000 
 S -5.76242771875000 0.633574943749999 5.81464813125000 
 S -5.68333971875000 4.74721694375000 5.96480213125000 
 S -2.45650771875000 0.479829943749999 3.25816513125000 
 S -2.65125771875000 4.91725394375000 3.27165913125000 
 S -3.43860771875000 1.73875794375000 7.01123313125000 
 S -3.33250471875000 5.67252994375000 7.32611113125000 
