16

 C -3.09347106875000 1.54089063437500 5.43556145937500 
 C -3.07438506875000 5.18692263437500 5.47119345937500 
 C -4.35568906875000 1.30003463437500 4.75390645937500 
 C -4.33008606875000 4.92157563437500 4.82424945937500 
 N -2.05365206875000 1.70234163437500 4.61436245937500 
 N -2.03113906875000 5.42573163437500 4.68164845937500 
 N -4.31522406875000 1.38161163437500 3.42386045937500 
 N -4.20728106875000 4.92698763437500 3.47845145937500 
 N -4.92590406875000 1.35676063437500 7.27914945937500 
 N -4.71322706875000 4.91333563437500 7.39162845937500 
 S -5.72861206875000 1.28817663437500 5.85998945937500 
 S -5.57776406875000 4.68333963437500 6.01292845937500 
 S -2.75245506875000 1.56001463437500 3.05556145937500 
 S -2.62120506875000 5.27702963437500 3.15874245937500 
 S -3.26463306875000 1.59445063437500 7.19915945937500 
 S -3.06106206875000 5.07493063437500 7.21479445937500 
