16

 C -3.10208421875000 1.16790723750000 5.54084387812500 
 C -3.06846021875000 4.70712923750000 5.55349287812500 
 C -4.19583621875000 0.456453237500000 4.91419387812500 
 C -4.27512221875000 4.26694323750000 4.89848387812500 
 N -2.07198821875000 1.44673623750000 4.75464987812500 
 N -2.04467121875000 4.81069523750000 4.70389487812500 
 N -3.97032921875000 0.328772237500001 3.62123887812500 
 N -4.17129221875000 4.13845223750000 3.57416687812500 
 N -4.98218421875000 1.04945723750000 7.27675487812500 
 N -4.97592621875000 5.20011423750000 7.26230187812500 
 S -5.62573221875000 0.336135237500001 5.93885987812500 
 S -5.68238921875000 4.41622123750000 5.95771887812500 
 S -2.51026621875000 1.05664223750000 3.20405387812500 
 S -2.60260721875000 4.51322323750000 3.16740187812500 
 S -3.43929821875000 1.63450023750000 7.13826487812500 
 S -3.29396021875000 5.34893423750000 7.17013687812500 
