16

 C -2.84426072187499 1.27681677187500 5.76791300625000 
 C -3.07276872187499 4.66383077187500 5.50207400625000 
 C -4.09541472187500 1.08810877187500 5.08400900625000 
 C -4.24809972187500 4.32943777187500 4.75589700625000 
 N -1.78627872187499 1.30759877187500 4.96800400625000 
 N -1.88649672187499 4.71137077187500 4.88520800625000 
 N -4.04793572187499 1.09555677187500 3.75332700625000 
 N -3.96745272187499 4.16121977187500 3.43379400625000 
 N -4.90113372187500 1.62788877187500 7.48840200625000 
 N -5.03128372187499 4.91820377187500 7.14943700625000 
 S -5.48512872187499 1.21848177187500 5.96479900625000 
 S -5.76159372187499 4.33496977187500 5.82569200625000 
 S -2.42193072187499 1.11537677187500 3.39403600625000 
 S -2.26696372187499 4.38433877187500 3.30959900625000 
 S -3.15263572187499 1.56776477187500 7.53109000625000 
 S -3.38850772187499 5.06600177187500 7.17063700625000 
