16

 C -3.35419635312501 1.41715307187500 5.42191422500000 
 C -3.19943035312501 4.96702807187500 4.96365622500000 
 C -4.40692335312501 0.580841071875003 4.81582022500000 
 C -4.37683735312501 4.45462007187500 4.32025022500000 
 N -2.45633235312501 1.88027207187500 4.53478422500000 
 N -2.14974735312501 5.20328007187500 4.21362522500000 
 N -4.23864935312501 0.282651071875003 3.53902622500000 
 N -4.21089435312501 4.46439107187500 2.98244822500000 
 N -5.11810735312501 0.788763071875003 7.23018422500000 
 N -4.83350235312501 4.45870307187500 6.84055722500000 
 S -5.77007835312501 0.190459071875003 5.82182122500000 
 S -5.53834135312501 3.85568007187500 5.45451022500000 
 S -2.87385635312501 1.15790607187500 3.11957822500000 
 S -2.60713535312501 5.00338907187500 2.65988222500000 
 S -3.60391535312501 1.44382807187500 7.17587022500000 
 S -3.39449635312501 5.21060107187500 6.62848222500000 
