16

 C -3.61186363125000 1.37070418437500 5.83142993437500 
 C -3.23018463125000 5.13145018437500 5.35174693437500 
 C -4.70133863125000 0.901548184374997 4.92278593437500 
 C -4.42237263125000 4.54948618437500 4.79394893437500 
 N -2.48493763125000 1.53897918437500 5.14433693437500 
 N -2.26236363125000 5.28623518437500 4.46433793437500 
 N -4.33913163125000 0.628384184374998 3.68029393437500 
 N -4.38771263125000 4.24056518437500 3.48902293437500 
 N -5.62150063125000 0.795130184374997 7.34302793437500 
 N -4.81912663125000 4.84689618437500 7.31253293437500 
 S -6.15434063125000 0.480704184374997 5.80353593437500 
 S -5.66980563125000 4.43613518437500 5.98661093437500 
 S -2.75433963125000 1.16095418437500 3.52770393437500 
 S -2.86469163125000 4.73140418437500 2.99342693437500 
 S -4.08121663125000 1.36553218437500 7.51312493437500 
 S -3.27030163125000 5.41399518437500 7.05964693437500 
