16

 C -2.98302916250000 1.25970538437500 5.33002196562500 
 C -2.85472616250000 5.15399138437500 5.69224096562500 
 C -4.09660816250001 0.744006384375000 4.66352396562500 
 C -4.12244616250000 4.69929238437500 5.17687496562500 
 N -1.86210316250000 1.39144938437500 4.62044796562500 
 N -1.93368416250000 5.18474738437500 4.74127596562500 
 N -3.93213916250000 0.549065384375000 3.33511796562500 
 N -4.19624516250000 4.50322838437500 3.87564096562500 
 N -4.75549516250000 0.855996384375000 7.20200196562500 
 N -4.42750416250000 4.79850038437500 7.68765196562500 
 S -5.43037816250000 0.372807384375000 5.73338096562500 
 S -5.29470216250000 4.29267638437500 6.35431096562500 
 S -2.30974416250000 0.972101384375000 3.11707596562500 
 S -2.66069016250000 4.82677938437500 3.30460796562500 
 S -3.23482716250000 1.50760638437500 7.06450896562500 
 S -2.88601916250000 5.34570138437500 7.42270796562500 
