16

 C -3.18870344375000 1.70536057187500 5.43434713437500 
 C -3.08557744375000 4.88887757187500 5.58315013437500 
 C -4.43717044375000 1.35612757187500 4.71226313437500 
 C -4.28692844375000 4.61483757187500 4.88788313437500 
 N -2.15559844375000 1.86551457187500 4.63790813437500 
 N -2.04863944375000 5.14338057187500 4.74928213437500 
 N -4.27312444375000 1.23532657187500 3.39034913437500 
 N -4.16451644375000 4.41540457187500 3.56081213437500 
 N -4.93283744375000 1.11525057187500 7.18066413437500 
 N -4.90227144375000 4.72554557187500 7.43064913437500 
 S -5.75037444375000 0.920061571875002 5.75727513437500 
 S -5.57876944375000 4.56413457187500 5.92039313437500 
 S -2.74224144375000 1.63871057187500 3.05341113437500 
 S -2.60504044375000 4.81609757187500 3.22113313437500 
 S -3.34133244375000 1.70221357187500 7.17691513437500 
 S -3.28917844375000 5.24459557187500 7.27881013437500 
