16

 C -2.98092865625000 1.56410033437500 5.61507407500000 
 C -3.03917165625000 5.30366833437500 5.57708607500000 
 C -4.14532765625000 0.959997334375003 4.99793907500000 
 C -4.27731765625000 4.91474433437500 4.93361107500000 
 N -1.94987765625000 1.84122933437500 4.84254307500000 
 N -2.02640065625000 5.36898333437500 4.73588607500000 
 N -3.99451565625000 0.802654334375003 3.68513807500000 
 N -4.22130265625000 4.64469733437500 3.64003307500000 
 N -4.74088365625000 1.48863033437500 7.42738407500000 
 N -4.84492565625000 5.36989433437500 7.37975607500000 
 S -5.43173865625000 0.783874334375003 6.06665707500000 
 S -5.60874665625000 4.87028333437500 6.01164707500000 
 S -2.44579565625000 1.28700633437500 3.32778807500000 
 S -2.61911065625000 4.99835133437500 3.18960307500000 
 S -3.17924065625000 2.10070433437500 7.22559907500000 
 S -3.26586865625000 5.74634433437500 7.30225307500000 
