16

 C -3.13376433437500 1.21876875312500 5.53753415625000 
 C -3.35205533437500 5.00809275312500 5.47623515625000 
 C -4.41262333437500 0.941603753125001 4.92813915625000 
 C -4.51755533437500 4.49549575312500 4.82455815625000 
 N -2.10231433437500 1.36243575312500 4.68456515625000 
 N -2.37624233437499 5.32193175312500 4.66808515625000 
 N -4.31554233437500 0.829545753125002 3.60676015625000 
 N -4.44511233437500 4.42298275312500 3.47602415625000 
 N -4.89754233437499 1.20134375312500 7.39682215625000 
 N -5.12688133437500 4.64459375312500 7.35314315625000 
 S -5.74166633437499 0.899362753125001 6.01899915625000 
 S -5.83284933437499 4.14561875312500 5.90454115625000 
 S -2.79804433437500 1.14211575312500 3.17293315625000 
 S -2.95932033437500 4.98435575312500 3.10388315625000 
 S -3.29763433437500 1.62265775312500 7.25020415625000 
 S -3.55286733437500 5.16268175312500 7.27545015625000 
