16

 C -3.23905324375000 1.26280375312500 5.32987644062500 
 C -2.91234424375000 5.23937875312500 5.33689544062500 
 C -4.48886724375000 0.937225753125001 4.76559544062500 
 C -4.14603524375000 4.87118375312500 4.64411044062500 
 N -2.21723224375000 1.18521675312500 4.48402444062500 
 N -1.82697324375000 5.43102775312500 4.57776544062500 
 N -4.40770624375000 0.548316753125001 3.48403344062500 
 N -3.91359724375000 4.62846075312500 3.34788944062500 
 N -4.84948324375000 1.24413175312500 7.30308744062500 
 N -4.65189624375000 4.83730175312500 7.22960944062500 
 S -5.75817424375000 0.900276753125001 5.93040544062500 
 S -5.40872524375000 4.49408175312500 5.78240144062500 
 S -2.78608624375000 0.639680753125002 3.03779844062500 
 S -2.28422324375000 4.93961675312500 3.06619344062500 
 S -3.25871024375000 1.58564675312500 7.00119644062500 
 S -3.12376524375000 5.46838975312500 7.13725744062500 
