16

 C -3.07758466875000 1.22081096875000 5.62839170000000 
 C -3.04142966875000 4.88745096875000 5.51717170000000 
 C -4.32050666875000 0.769881968749999 5.05721970000000 
 C -4.25258366875000 4.39983296875000 4.87516270000000 
 N -2.00404266875000 1.28490096875000 4.84813670000000 
 N -1.98198066875000 4.90264296875000 4.71280470000000 
 N -4.22727666875000 0.516300968750000 3.75288770000000 
 N -4.14123166875000 4.10168696875000 3.57205170000000 
 N -4.77934066875000 1.03342596875000 7.64734770000000 
 N -4.88985966875000 4.90018296875000 7.24754670000000 
 S -5.69615266875000 0.724177968749999 6.25354870000000 
 S -5.58991466875000 4.11032896875000 5.90339070000000 
 S -2.64073966875000 0.759927968750000 3.36396570000000 
 S -2.52203266875000 4.38535496875000 3.24895370000000 
 S -3.23187966875000 1.64304696875000 7.37022370000000 
 S -3.29237766875000 5.38600696875000 7.15679470000000 
