16

 C -3.14618947500000 1.40016452187500 5.74528328750000 
 C -2.99393747500000 4.95654852187500 5.53090228750000 
 C -4.48211947500000 1.04935052187500 5.30657528750000 
 C -4.25852047500000 4.79833552187500 4.87422028750000 
 N -2.20177647500000 1.27834152187500 4.79005128750000 
 N -1.91571547500000 4.98501952187500 4.72042428750000 
 N -4.61804047500000 0.708922521875001 4.01418828750000 
 N -4.10658247500000 4.70966752187500 3.56717428750000 
 N -4.76598247500000 1.75836352187500 7.80825428750000 
 N -4.70697747500000 4.64390052187500 7.33623928750000 
 S -5.68087747500000 1.14798652187500 6.53613428750000 
 S -5.51201147500000 4.34422452187500 6.01098628750000 
 S -2.98935047500000 0.620550521875002 3.44440828750000 
 S -2.44125147500000 4.75232552187500 3.18776228750000 
 S -3.09791047500000 1.74406152187500 7.51523428750000 
 S -3.04456647500000 4.89891552187500 7.24394628750000 
