16

 C -2.97964852500000 1.53361456250000 5.48702780937500 
 C -3.12199852500000 5.09085556250001 5.39774780937500 
 C -4.17882452500000 1.04438256250001 4.74938280937500 
 C -4.35186952500000 4.54365856250000 4.88786380937500 
 N -1.91288352500000 1.56405056250000 4.66176080937500 
 N -2.16574852500000 5.18395156250000 4.47282780937500 
 N -3.94458652500000 0.786912562500005 3.46729280937500 
 N -4.31963152500000 4.14403556250000 3.62003380937500 
 N -5.01665552500000 1.31835256250000 7.18106080937500 
 N -4.88350652500000 5.05047356250000 7.36691280937500 
 S -5.60483752500000 0.958819562500005 5.69848180937500 
 S -5.65429452500000 4.39527156250000 6.04867580937500 
 S -2.33466752500000 1.10330156250000 3.13692480937500 
 S -2.84777252500000 4.64303056250001 3.05316180937500 
 S -3.45223752500000 1.79272156250001 7.17172380937500 
 S -3.28098652500000 5.46882756250000 7.10873780937500 
