16

 C -3.36555272812500 1.39552689062500 5.51653440937500 
 C -2.96653672812500 5.13311389062500 5.75018440937500 
 C -4.63207472812500 1.11416989062500 4.86335140937500 
 C -4.31332772812500 4.95549189062500 5.22494340937500 
 N -2.31021072812500 1.67196389062500 4.75091940937500 
 N -1.99837672812500 5.20489089062500 4.81540640937500 
 N -4.56323272812500 1.26552389062500 3.53666240937500 
 N -4.39561872812500 4.86026789062500 3.87876640937500 
 N -5.18605072812500 1.36813789062500 7.39369040937500 
 N -4.67206472812500 5.25611389062500 7.69604640937500 
 S -5.92220172812500 0.841837890624999 5.95342640937500 
 S -5.63830372812500 4.97775389062500 6.37601840937500 
 S -2.93332872812500 1.55367389062500 3.20639340937500 
 S -2.80980072812500 5.00679889062500 3.34987440937500 
 S -3.58334172812500 1.74869089062500 7.20774940937500 
 S -3.02038172812500 5.31519589062500 7.53245740937500 
