16

 C -3.17108828750000 1.51956171875000 5.66720222500000 
 C -3.26716728750000 4.92638671875000 5.42855022500000 
 C -4.43794128750000 1.27650671875000 5.01020422500000 
 C -4.50853628750000 4.79327371875000 4.71143422500000 
 N -2.16664228750000 1.58365971875000 4.79538522500000 
 N -2.17516128750000 4.87653271875000 4.69155122500000 
 N -4.35739528750000 1.11125271875000 3.68213122500000 
 N -4.34860928750000 4.66107371875000 3.40379322500000 
 N -4.87816328750000 1.54101771875000 7.57359122500000 
 N -5.07553828750000 4.99453871875000 7.16112622500000 
 S -5.72580728750000 1.11044471875000 6.17381522500000 
 S -5.87827128750000 4.58520671875000 5.79030522500000 
 S -2.69031928750000 1.22998971875000 3.23066922500000 
 S -2.70414228750000 4.68570671875000 3.12180722500000 
 S -3.28140328750000 1.84504071875000 7.33793922500000 
 S -3.45384328750000 5.24767371875000 7.09022322500000 
