16

 C -2.91993130625000 1.61663852500000 5.29723374062500 
 C -3.25674430625000 4.93303152500000 5.61761474062500 
 C -4.12184830625000 0.978270524999999 4.74486974062500 
 C -4.44840730625000 4.52788452500000 4.92529774062500 
 N -1.94299730625000 1.84876652500000 4.41214774062500 
 N -2.30959330625000 5.31026852500000 4.77302674062500 
 N -4.08851430625000 0.839947524999999 3.40161174062500 
 N -4.40755830625000 4.47142952500000 3.59322674062500 
 N -4.36149130625000 1.02758852500000 7.28821974062500 
 N -5.04029230625000 4.50361952500000 7.41283274062500 
 S -5.29143930625000 0.631482524999999 5.98959574062500 
 S -5.71680530625000 4.03704852500000 5.96273074062500 
 S -2.57615730625000 1.34364452500000 2.98370674062500 
 S -2.89035830625000 5.06863452500000 3.25311774062500 
 S -2.88889930625000 1.72901252500000 6.98194574062500 
 S -3.42072630625000 4.94420552500000 7.31447574062500 
