16

 C -2.86825769375000 1.98535988125000 5.56975093750000 
 C -3.19384669375000 5.45869188125000 5.31121593750000 
 C -4.12445369375000 1.65049988125000 4.95772693750000 
 C -4.31253869375000 4.82315988125000 4.65057093750000 
 N -1.89743769375000 2.17888688125000 4.67990493750000 
 N -2.22935169375000 5.82714988125000 4.48263793750000 
 N -4.11121769375000 1.57999688125000 3.62676093750000 
 N -4.11727769375000 4.62618688125000 3.37575293750000 
 N -4.59886169375000 1.64603088125000 7.43665693750000 
 N -4.92972069375000 5.02920388125000 7.16835493750000 
 S -5.45582569375000 1.41344188125000 6.04049593750000 
 S -5.61639069375000 4.59742288125000 5.74717293750000 
 S -2.48893569375000 1.84756788125000 3.18646593750000 
 S -2.66071369375000 5.28532888125000 2.97229093750000 
 S -3.07350969375000 2.19339088125000 7.28456293750000 
 S -3.32051969375000 5.34763088125000 7.01170393750000 
