16

 C -2.81645110937500 1.47365627187500 5.45844598125000 
 C -3.44149610937500 5.08879127187500 5.23264698125000 
 C -4.06002710937500 1.11096027187500 4.78073798125000 
 C -4.55458910937500 4.43573227187500 4.63758898125000 
 N -1.77614710937500 1.51841227187500 4.61911898125000 
 N -2.37148610937500 5.20627727187500 4.45627698125000 
 N -3.92899010937500 0.836888271874999 3.52558598125000 
 N -4.27903810937500 3.94796027187500 3.41776598125000 
 N -4.75484810937500 1.40484427187500 7.15724898125000 
 N -5.34717410937500 5.14982927187500 7.06791398125000 
 S -5.48595310937500 0.829468271874999 5.73975698125000 
 S -5.81770610937500 4.18491127187500 5.77208298125000 
 S -2.35814610937500 1.19297127187500 3.08275498125000 
 S -2.76398310937500 4.40316827187500 3.06249698125000 
 S -3.13737310937500 1.87987527187500 7.11717398125000 
 S -3.81795210937500 5.88533227187500 6.75903998125000 
