16

 C -3.27402086875000 1.45019339687500 5.55418094687500 
 C -3.34404886875000 5.12358939687500 5.48701694687500 
 C -4.48223986875000 1.04557239687500 4.89600694687500 
 C -4.52355186875000 4.54401039687500 4.89631494687500 
 N -2.25735086875000 1.55229639687500 4.71550094687500 
 N -2.37477086875000 5.34804539687500 4.58070694687500 
 N -4.38326286875000 0.937166396875000 3.58584994687500 
 N -4.52982686875000 4.45741539687500 3.55704794687500 
 N -5.04552486875000 1.29634539687500 7.36475894687500 
 N -5.10184586875000 4.95320939687500 7.39690394687500 
 S -5.78023686875000 0.721700396875001 5.96370894687500 
 S -5.84527386875000 4.29716439687500 6.05799794687500 
 S -2.78947086875000 1.29410939687500 3.16073294687500 
 S -2.97749686875000 4.88688039687500 3.11275494687500 
 S -3.39452686875000 1.48797839687500 7.32890594687500 
 S -3.45853586875000 5.14460039687500 7.21563294687500 
