16

 C -3.23372601250000 1.19212740937500 5.56711416875000 
 C -3.16581801250000 5.52529340937500 5.72879416875000 
 C -4.42846401250000 0.703378409375000 4.91521116875000 
 C -4.22899201250000 4.81003940937500 5.02794916875000 
 N -2.23561701250000 1.32794840937500 4.65147416875000 
 N -2.16396901250000 5.94958040937500 4.91499116875000 
 N -4.37965101250000 0.579103409375000 3.57802016875000 
 N -4.09708201250000 4.88451740937500 3.70882316875000 
 N -4.97427001250000 0.817600409375000 7.41454416875000 
 N -4.82866701250000 4.67533140937500 7.47621716875000 
 S -5.76345001250000 0.493358409375000 5.96993716875000 
 S -5.57905401250000 4.35613740937500 6.04088216875000 
 S -2.87767601250000 1.16817340937500 3.13668716875000 
 S -2.69647401250000 5.55717240937500 3.36698516875000 
 S -3.39449401250000 1.23238940937500 7.27325316875000 
 S -3.30697101250000 5.39667140937500 7.41886416875000 
