16

 C -3.40769785625000 1.28293112187500 5.93412619062500 
 C -3.14453685625000 5.04042812187500 5.20795419062500 
 C -4.59097685625000 0.838369121875000 5.15820119062500 
 C -4.37271685625000 4.75850012187500 4.46675219062500 
 N -2.34587285625000 1.42547312187500 5.20390719062500 
 N -2.09193885625000 5.11356712187500 4.41105919062500 
 N -4.35246785625000 0.825624121874999 3.87014919062500 
 N -4.21292385625000 4.45491012187500 3.17835919062500 
 N -5.34320885625000 1.00726212187500 7.63652919062500 
 N -5.05230785625000 4.92174512187500 6.98834719062500 
 S -6.00502285625000 0.563289121874999 6.17641219062500 
 S -5.73459085625000 4.52604212187500 5.55313019062500 
 S -2.72987885625000 1.21776412187500 3.60512419062500 
 S -2.61599685625000 4.74963312187500 2.85773419062500 
 S -3.71712385625000 1.28586712187500 7.59233419062500 
 S -3.37735185625000 5.27467712187500 6.94959319062500 
