16

 C -3.11442475937500 1.40354468437500 5.52861703437500 
 C -3.55210375937500 5.14811368437500 5.50231903437500 
 C -4.29030975937500 0.915900684375001 4.83504203437500 
 C -4.66679175937500 4.39735068437500 4.95563103437500 
 N -2.12030875937500 1.78151268437500 4.76079103437500 
 N -2.54344575937500 5.34907668437500 4.66186303437500 
 N -4.13962575937500 0.909117684375000 3.53437703437500 
 N -4.61296775937500 4.26458068437500 3.63232403437500 
 N -4.96754875937500 1.06389668437500 7.33394103437500 
 N -5.17037675937500 4.76869668437500 7.43071203437500 
 S -5.68205075937500 0.719108684375001 5.86413503437500 
 S -5.90317775937500 4.16905168437500 6.04968803437500 
 S -2.60617775937500 1.51635068437500 3.19419103437500 
 S -3.13279975937500 4.89472468437500 3.21195303437500 
 S -3.43826575937500 1.71436868437500 7.18150303437500 
 S -3.62958975937500 5.41194168437500 7.24701503437500 
