16

 C -3.13971358437500 1.23112121562500 5.43141859687500 
 C -3.06281758437500 5.06767621562500 5.64084559687500 
 C -4.24693858437500 0.633131215625003 4.74652759687500 
 C -4.17213658437500 4.52708121562500 4.93139659687500 
 N -2.12207058437500 1.76492421562500 4.67316959687500 
 N -1.98298958437500 5.27352421562500 4.90671859687500 
 N -4.03460058437500 0.700503215625004 3.41014459687500 
 N -3.92299058437500 4.30554921562500 3.63253659687500 
 N -4.78511058437500 0.952958215625003 7.31290159687500 
 N -5.15680158437500 5.09998921562500 7.18700059687500 
 S -5.55011158437500 0.363161215625004 5.98887159687500 
 S -5.61002158437500 4.30736821562500 5.73894059687500 
 S -2.51790858437500 1.36753521562500 3.12042259687500 
 S -2.43896158437500 4.84153521562500 3.33156059687500 
 S -3.30314358437500 1.62067521562500 7.14312859687500 
 S -3.55473558437500 5.59661521562500 7.30257459687500 
