16

 C -3.06659448750000 1.83338716250000 5.75735412500000 
 C -3.08624648750000 5.32328416250000 5.67965912500000 
 C -4.33754948750000 1.62668816250000 5.14648312500000 
 C -4.33880548750000 4.97047616250000 5.04729812500000 
 N -2.04730148750000 1.98320616250000 4.92252812500000 
 N -2.09582648750000 5.51100816250000 4.79826412500000 
 N -4.27943248750000 1.59351316250000 3.84478912500000 
 N -4.30550748750000 4.96590816250000 3.72900112500000 
 N -4.81909348750000 1.40088316250000 7.64620312500000 
 N -4.81510648750000 5.01194816250000 7.54887012500000 
 S -5.66612948750000 1.39087216250000 6.21212112500000 
 S -5.63742748750000 4.76159316250000 6.11107512500000 
 S -2.71548948750000 1.62177016250000 3.46227012500000 
 S -2.77029748750000 5.19516916250000 3.26180112500000 
 S -3.15839448750000 1.83846516250000 7.50583312500000 
 S -3.16456748750000 5.31428216250000 7.46751012500000 
