16

 C -3.44399284062500 1.37559184375000 5.47900551875000 
 C -3.12733584062500 4.88590484375000 5.02320251875000 
 C -4.47404984062500 0.631863843749999 4.81290851875000 
 C -4.32525984062500 4.41048684375000 4.33948451875000 
 N -2.49362684062500 1.71081584375000 4.63592851875000 
 N -2.10312384062500 5.14782884375000 4.20779451875000 
 N -4.26597084062500 0.427420843749998 3.53195351875000 
 N -4.22419484062500 4.40241284375000 3.01590051875000 
 N -5.14944684062500 0.821423843749999 7.30619451875000 
 N -4.98255584062500 4.69570384375000 6.82839351875000 
 S -5.79014684062500 0.317261843749999 5.88179851875000 
 S -5.57784484062500 3.98982584375000 5.45743351875000 
 S -2.86680584062500 1.18725084375000 3.07535851875000 
 S -2.70257784062500 4.83604684375000 2.61770751875000 
 S -3.59170884062500 1.43490784375000 7.18797151875000 
 S -3.36231484062500 5.21084984375000 6.72864751875000 
