16

 C -2.85246129062501 1.30195910625000 5.36166776562500 
 C -3.18798429062501 4.96074710625000 5.40201276562500 
 C -4.09477229062501 0.851066106250000 4.83572976562500 
 C -4.39590529062501 4.44955710625000 4.86531476562500 
 N -1.98748929062501 1.45330310625000 4.33026476562500 
 N -2.29071429062501 5.25913910625000 4.45841776562500 
 N -4.23153729062501 0.663194106250000 3.50953076562500 
 N -4.44743329062501 4.32105910625000 3.54996176562500 
 N -4.52697729062501 1.27240110625000 7.29792576562500 
 N -4.86087229062501 4.98626510625000 7.35558276562500 
 S -5.37434929062501 0.882347106250000 5.98127676562500 
 S -5.61562329062501 4.20397310625000 6.12041976562500 
 S -2.72285629062501 1.03794110625000 2.88949876562500 
 S -2.95431129062501 4.95168310625000 3.01835776562500 
 S -2.94930729062501 1.70864010625000 7.10474676562500 
 S -3.22183529062501 5.42586410625000 7.01020876562500 
