16

 C -2.93990599687500 1.42983418750000 5.74058514062500 
 C -3.17236999687500 4.66927818750000 5.59748014062500 
 C -4.18316199687500 1.21939818750000 5.11686714062500 
 C -4.44669999687500 4.55123618750000 4.93243714062500 
 N -1.86742599687500 1.48466118750000 4.94936514062500 
 N -2.08257499687500 4.69292618750000 4.83431714062500 
 N -4.09202699687500 1.02388218750000 3.79624614062500 
 N -4.37054399687500 4.62724318750000 3.60110314062500 
 N -4.72369599687500 1.50202418750000 7.62442214062500 
 N -4.97033799687500 4.62610918750000 7.48231114062500 
 S -5.52543399687500 1.25078818750000 6.24671314062500 
 S -5.77870699687500 4.40201818750000 6.05107114062500 
 S -2.52125499687500 1.27962318750000 3.36566314062500 
 S -2.73269899687500 4.69327718750000 3.28895114062500 
 S -3.05850399687500 1.64402518750000 7.53081814062500 
 S -3.37043999687500 4.93998918750000 7.30475614062500 
