16

 C -2.92363605312500 1.49938613437500 5.30885404375000 
 C -3.32259605312500 5.22266913437500 5.46574004375000 
 C -4.24709105312500 1.05182713437500 4.77740604375000 
 C -4.40508105312500 4.65858413437500 4.72346604375000 
 N -1.99350605312500 1.58431013437500 4.36867904375000 
 N -2.25811105312500 5.50717313437500 4.72206204375000 
 N -4.21752005312500 0.886317134374999 3.44198404375000 
 N -4.18570605312500 4.62758413437500 3.40002004375000 
 N -4.57342505312500 1.14827013437500 7.38595804375000 
 N -5.06625605312500 4.71314713437500 7.22072504375000 
 S -5.45330305312500 0.787994134374999 6.04417204375000 
 S -5.75843605312500 4.32662513437500 5.79254104375000 
 S -2.72495105312500 1.27648813437500 2.88685104375000 
 S -2.62152605312500 5.15525613437500 3.16919704375000 
 S -2.98918905312500 1.59147913437500 7.10530504375000 
 S -3.48870205312500 5.21720113437500 7.20097004375000 
