16

 C -3.13403193125000 1.55190980000000 5.32738235625000 
 C -3.27868793125000 5.24698180000000 5.73747935625000 
 C -4.25761593125000 0.810743800000003 4.79731035625000 
 C -4.40762293125000 4.69750980000000 5.07157335625000 
 N -2.13500793125000 1.63737680000000 4.47051735625000 
 N -2.23604293125000 5.48714480000000 5.02744735625000 
 N -3.99459493125000 0.240344800000003 3.61837635625000 
 N -4.17540393125000 4.51693080000000 3.78855835625000 
 N -4.90189993125000 1.42469180000000 7.21691235625000 
 N -5.04152293125000 5.06068280000000 7.58626835625000 
 S -5.63116493125000 0.821858800000003 5.80702735625000 
 S -5.79464393125000 4.59229980000000 6.17143735625000 
 S -2.58938093125000 0.834852800000003 3.04710835625000 
 S -2.62123993125000 5.01756180000000 3.46618135625000 
 S -3.33885993125000 1.99541980000000 6.98870535625000 
 S -3.45497693125000 5.65175980000000 7.40108335625000 
