16

 C -3.31507524375000 1.40295340625000 5.52463611562500 
 C -3.42629424375000 5.07105440625000 5.19894111562500 
 C -4.50096124375000 0.848970406249997 4.93891311562500 
 C -4.63549024375000 4.64996640625000 4.53967611562500 
 N -2.31416224375000 1.60030840625000 4.64358711562500 
 N -2.41067924375000 5.33735640625000 4.37607311562500 
 N -4.45531824375000 0.546653406249997 3.63572311562500 
 N -4.42376024375000 4.34029140625000 3.27869211562500 
 N -5.02873224375000 0.911017406249997 7.53108411562500 
 N -5.11144424375000 4.61187240625000 7.08348911562500 
 S -5.79496324375000 0.641997406249997 6.05206111562500 
 S -5.85316524375000 4.18058040625000 5.64954211562500 
 S -2.94448424375000 1.06425540625000 3.16414811562500 
 S -2.90188724375000 4.82793640625000 2.82882411562500 
 S -3.52857824375000 1.62382040625000 7.27817411562500 
 S -3.56960024375000 5.14515040625000 6.97516611562500 
