16

 C -3.16670982187500 1.40988046875000 5.38111366250000 
 C -3.22798382187500 5.29356646875000 5.72308566250000 
 C -4.27086082187500 0.660758468750000 4.87176966250000 
 C -4.38074382187500 4.72651946875000 5.08113766250000 
 N -2.21145882187500 1.55264746875000 4.48199666250000 
 N -2.12412982187500 5.38334746875000 4.91479366250000 
 N -4.10812382187500 0.173010468750000 3.65598566250000 
 N -4.21055382187500 4.48563546875000 3.75860066250000 
 N -4.99767382187500 1.56797046875000 7.16776266250000 
 N -5.01559682187500 5.03386246875000 7.58661366250000 
 S -5.68186982187500 0.717591468750000 5.89052666250000 
 S -5.69434582187500 4.53637346875000 6.16529066250000 
 S -2.63608782187500 0.632090468750000 3.11167266250000 
 S -2.68922882187500 4.91494446875000 3.37934966250000 
 S -3.43853982187500 2.06435646875000 6.95829866250000 
 S -3.51302682187500 5.74091346875000 7.34057266250000 
