16

 C -2.92595299375000 1.65926276250000 5.40881378750000 
 C -3.19942999375000 5.01962576250000 5.63056878750000 
 C -4.21674699375000 1.36629376250000 4.90041078750000 
 C -4.47465399375000 4.75582676250000 4.96280178750000 
 N -1.94387999375000 1.68185976250000 4.50563878750000 
 N -2.17210799375000 5.26493576250000 4.82605578750000 
 N -4.15549199375000 1.08976076250000 3.61606278750000 
 N -4.31537899375000 4.64206676250000 3.66553778750000 
 N -4.57067799375000 1.81272476250000 7.35854178750000 
 N -4.92072999375000 4.70590376250000 7.43575478750000 
 S -5.44440499375000 1.19870476250000 6.07567278750000 
 S -5.81016499375000 4.46171776250000 6.09924378750000 
 S -2.63908299375000 1.39157876250000 3.03293678750000 
 S -2.75470999375000 5.00252876250000 3.25602378750000 
 S -2.96591499375000 1.98890376250000 7.07738278750000 
 S -3.36008899375000 5.23904276250000 7.33682878750000 
