16

 C -3.07462842187500 1.53107065312500 5.64910800625000 
 C -3.09006342187500 5.20654865312500 5.64870700625000 
 C -4.36764042187500 1.20866665312500 5.08620400625000 
 C -4.31058442187500 4.85609965312500 4.96683300625000 
 N -2.07914242187500 1.80779865312500 4.80785300625000 
 N -2.06111942187500 5.44173165312500 4.86080400625000 
 N -4.38460442187500 1.41263165312500 3.76184500625000 
 N -4.23486242187500 4.91309165312500 3.64415100625000 
 N -4.76340442187500 1.61580365312500 7.54946200625000 
 N -4.87740942187500 4.95159565312500 7.47804700625000 
 S -5.67261142187500 1.29250365312500 6.15743400625000 
 S -5.62862742187500 4.58191265312500 6.02070800625000 
 S -2.80229442187500 1.70258165312500 3.29765800625000 
 S -2.60614542187500 5.23908465312500 3.32179100625000 
 S -3.12633442187500 1.83147665312500 7.32814400625000 
 S -3.21400542187500 5.29033665312500 7.40493900625000 
