16

 C -3.10253084375000 1.45011145625000 5.46647277812500 
 C -3.27213784375000 5.04094445625000 5.57952977812500 
 C -4.31348984375000 0.976648456250001 4.89282677812500 
 C -4.43806284375000 4.59128545625000 4.88139977812500 
 N -2.18055484375000 1.67046545625000 4.55594877812500 
 N -2.24735784375000 5.36925945625000 4.81704277812500 
 N -4.21132784375000 0.707082456250001 3.57763377812500 
 N -4.29546484375000 4.59098345625000 3.53050277812500 
 N -4.71359384375000 1.10914745625000 7.46462677812500 
 N -4.97722884375000 4.86951045625000 7.44382877812500 
 S -5.61570684375000 0.966546456250001 6.06179977812500 
 S -5.72882184375000 4.37311645625000 6.03898777812500 
 S -2.66247184375000 1.07126345625000 3.09978677812500 
 S -2.72526784375000 5.11330445625000 3.25369277812500 
 S -3.18297284375000 1.66666645625000 7.15925477812500 
 S -3.30947884375000 5.05904045625000 7.30663377812500 
