16

 C -3.11153813125000 1.28685462812500 5.72200559687500 
 C -3.01673113125000 4.64996662812500 5.39683859687500 
 C -4.41596213125000 0.849652628124999 5.10220559687500 
 C -4.24876413125000 4.19022462812500 4.79352159687500 
 N -2.06967113125000 1.28434962812500 4.87712359687500 
 N -1.92918113125000 4.71082862812500 4.62622059687500 
 N -4.33726613125000 0.670328628124999 3.77444559687500 
 N -4.11562813125000 3.96454262812500 3.49289759687500 
 N -4.82989113125000 1.10735762812500 7.65916659687500 
 N -4.90040713125000 4.76208562812500 7.25189559687500 
 S -5.68144613125000 0.785785628124999 6.23694059687500 
 S -5.58454013125000 4.02031962812500 5.92693459687500 
 S -2.78074913125000 0.925499628124999 3.40103159687500 
 S -2.49685613125000 4.31620362812500 3.10611259687500 
 S -3.22033113125000 1.61893062812500 7.43409459687500 
 S -3.32369013125000 5.07414362812500 7.07434059687500 
