16

 C -3.17986660625000 0.854687246875007 5.40376782187500 
 C -3.18208060625000 4.54644024687501 5.52039482187500 
 C -4.42711960625000 0.510308246875007 4.78538082187500 
 C -4.51924760625000 4.65911824687501 4.92311682187500 
 N -2.23155860625000 1.29861324687501 4.57578182187500 
 N -2.16932360625000 4.40769024687501 4.70400382187500 
 N -4.47013560625000 0.662201246875006 3.46157582187500 
 N -4.47559860625000 4.73911224687501 3.59736882187500 
 N -4.84809860625000 0.438932246875006 7.33493582187500 
 N -4.83614860625000 4.68451024687501 7.49752882187500 
 S -5.68989760625000 0.227554246875006 5.95887382187500 
 S -5.81293660625000 4.64909724687501 6.14836082187500 
 S -2.91343160625000 1.17643424687501 3.04803782187500 
 S -2.84109760625000 4.60091424687501 3.23029882187500 
 S -3.26807360625000 0.914248246875006 7.17548982187500 
 S -3.18549660625000 4.80762824687501 7.24480782187500 
