16

 C -3.00796831562500 1.83875835625000 5.77563715000000 
 C -3.16928931562500 5.39169835625000 5.65631815000000 
 C -4.25065131562500 1.54658935625000 5.08185915000000 
 C -4.38652131562500 4.94408535625000 5.07221115000000 
 N -1.98284431562500 1.97487835625000 4.93853015000000 
 N -2.12739831562500 5.51237835625000 4.82347615000000 
 N -4.12251331562500 1.38660735625000 3.77059215000000 
 N -4.31597731562500 4.78698135625000 3.75718215000000 
 N -4.76770931562500 1.44328235625000 7.73086015000000 
 N -4.79419331562500 5.15722435625000 7.64029915000000 
 S -5.63121331562500 1.50570735625000 6.30020715000000 
 S -5.70569231562500 4.85425435625000 6.29638115000000 
 S -2.57645031562500 1.79403135625000 3.39443415000000 
 S -2.73589831562500 5.11347635625000 3.30869315000000 
 S -3.08324931562500 1.73848135625000 7.52337115000000 
 S -3.18133531562500 5.39435835625000 7.32082215000000 
