16

 C -3.40830400312500 1.29798520937500 5.38486807812500 
 C -3.28824000312500 5.01128920937500 5.82178807812500 
 C -4.60100400312500 0.943830209375000 4.71579707812500 
 C -4.53957900312500 4.82033420937500 5.16913807812500 
 N -2.37097100312500 1.60570120937500 4.58254007812500 
 N -2.22885100312500 5.22283720937500 4.97646407812500 
 N -4.47836600312500 0.931581209375000 3.35797707812500 
 N -4.43673400312500 4.64068420937500 3.83876307812500 
 N -5.26081300312500 0.885595209375000 7.19546907812500 
 N -5.07689400312500 4.92618720937500 7.70883207812500 
 S -5.98651200312500 0.502288209375001 5.70485207812500 
 S -5.87587400312500 4.41463220937500 6.32343607812500 
 S -2.88598100312500 1.50912520937500 3.04967807812500 
 S -2.86171100312500 4.95948020937500 3.44493107812500 
 S -3.74273100312500 1.50852320937500 7.07815107812500 
 S -3.43861900312500 5.18562020937500 7.49456307812500 
