16

 C -3.31854870312500 1.26240537187500 5.97545609687500 
 C -3.04174170312500 4.81711737187500 5.25653509687500 
 C -4.46979370312500 0.766233371874999 5.25516409687500 
 C -4.30885670312500 4.69462137187500 4.57079509687500 
 N -2.23689070312500 1.48858037187500 5.25199409687500 
 N -1.98398170312500 4.96198637187500 4.45621609687500 
 N -4.30754270312500 0.750252371874998 3.95045109687500 
 N -4.16214170312500 4.46540137187500 3.27234309687500 
 N -5.24563470312500 0.757928371874999 7.70580509687500 
 N -4.80944370312500 4.74201137187500 7.10808209687500 
 S -5.85989370312500 0.390849371874999 6.22009809687500 
 S -5.58657570312500 4.54313037187500 5.65537109687500 
 S -2.72722370312500 1.22032237187500 3.68136109687500 
 S -2.56979070312500 4.74885037187500 2.89779709687500 
 S -3.64934470312500 1.23880237187500 7.66339109687500 
 S -3.16323170312500 4.98987937187500 6.98388109687500 
