16

 C -3.06023488437500 1.83200295000000 5.76074641250000 
 C -3.08425788437500 5.32448395000000 5.68131941250000 
 C -4.33553888437500 1.63531695000000 5.14596641250000 
 C -4.34275088437500 4.98024695000000 5.04672841250000 
 N -2.04167488437500 1.99372195000000 4.92525341250000 
 N -2.10200688437500 5.51351095000000 4.79933241250000 
 N -4.27838088437500 1.58913695000000 3.83774341250000 
 N -4.31182288437500 4.95715995000000 3.72985141250000 
 N -4.81615788437500 1.39764695000000 7.64160141250000 
 N -4.81356988437500 5.01405795000000 7.54674241250000 
 S -5.66345588437500 1.39455095000000 6.21313641250000 
 S -5.63564388437500 4.76451195000000 6.11100941250000 
 S -2.71758788437500 1.62085895000000 3.46937741250000 
 S -2.77055288437500 5.19244695000000 3.26149741250000 
 S -3.15746888437500 1.83519495000000 7.50562141250000 
 S -3.16256888437500 5.31507995000000 7.47130941250000 
