16

 C -3.19534293437500 1.14729870625000 5.57550421562500 
 C -3.33954993437500 4.89375370625000 5.49835021562500 
 C -4.27217993437500 0.599752706250002 4.79700121562500 
 C -4.62697693437500 4.69522070625000 4.84563021562500 
 N -2.13150693437500 1.49895570625000 4.90597721562500 
 N -2.34318193437500 4.78469270625000 4.64718621562500 
 N -4.05892793437500 0.630149706250002 3.49820521562500 
 N -4.61486993437500 4.66550570625000 3.50936121562500 
 N -4.93773393437500 0.298383706250002 7.14708821562500 
 N -5.01879893437500 4.71375770625000 7.43957221562500 
 S -5.60357393437500 6.905270625000215E-002 5.66481421562500 
 S -5.88985593437500 4.58136870625000 6.01317721562500 
 S -2.56721493437500 1.34498970625000 3.29900521562500 
 S -2.99721393437500 4.61893670625000 3.12005921562500 
 S -3.49612993437500 1.05230570625000 7.21767821562500 
 S -3.36585593437500 4.77708170625000 7.21955821562500 
