16

 C -3.27866520937500 1.34956271875000 5.34605751875000 
 C -3.18333720937500 5.42747771875000 5.63761251875000 
 C -4.40804920937500 0.639555718750002 4.80470651875000 
 C -4.40080220937500 4.79290171875000 5.03169651875000 
 N -2.17732720937500 1.30990571875000 4.62746851875000 
 N -2.16557720937500 5.52260871875000 4.83412551875000 
 N -4.21156320937500 0.107013718750003 3.60048251875000 
 N -4.23780420937500 4.46648771875000 3.76738751875000 
 N -5.04482420937500 1.60773671875000 7.11058451875000 
 N -4.99498420937500 5.18018471875000 7.45667351875000 
 S -5.72816320937500 0.552167718750002 6.01994651875000 
 S -5.72045720937500 4.47667271875000 6.12754351875000 
 S -2.59308220937500 0.557920718750003 3.19728851875000 
 S -2.68758220937500 4.81600271875000 3.38092451875000 
 S -3.47902520937500 2.02519871875000 6.88180551875000 
 S -3.40596020937500 5.73017471875000 7.39136051875000 
