16

 C -3.28763739687500 1.58261703125000 5.49768600937500 
 C -3.13013339687500 5.14809903125000 5.72654500937500 
 C -4.58819639687500 1.23248403125000 4.98299800937500 
 C -4.34506139687500 4.77535603125000 5.08218400937500 
 N -2.32921539687500 1.75334003125000 4.55287300937500 
 N -2.13078939687500 5.49262103125000 4.89551500937500 
 N -4.57200739687500 1.08570803125000 3.64476600937500 
 N -4.29781739687500 4.70770703125000 3.73155600937500 
 N -4.78453639687500 1.08947203125000 7.58214000937500 
 N -4.95471739687500 5.01354503125000 7.54389900937500 
 S -5.81920739687500 0.968620031250000 6.22399600937500 
 S -5.64724639687500 4.32580603125000 6.24137900937500 
 S -3.00484539687500 1.44653903125000 3.07536700937500 
 S -2.73928439687500 5.11442903125000 3.34014400937500 
 S -3.28400939687500 1.65333803125000 7.23827400937500 
 S -3.37304139687500 5.40783803125000 7.38705700937500 
