16

 C -3.44098792812500 1.23724617187500 5.87069279375000 
 C -3.18183192812500 5.09218417187500 5.16016079375000 
 C -4.55031792812500 0.847234171875000 5.15495579375000 
 C -4.39444192812500 4.65563117187500 4.48545979375000 
 N -2.31493192812500 1.41865317187500 5.18931679375000 
 N -2.09531192812500 5.10434817187500 4.40411079375000 
 N -4.35389692812500 0.820380171875001 3.84522579375000 
 N -4.23632992812500 4.44205017187500 3.18252679375000 
 N -5.32101092812500 0.962919171875000 7.64827979375000 
 N -5.04146992812500 4.91371217187500 6.99914079375000 
 S -6.01715292812500 0.612359171875000 6.17053579375000 
 S -5.72670592812500 4.53434617187500 5.54541579375000 
 S -2.74878392812500 1.23376017187500 3.59476579375000 
 S -2.64937492812500 4.77462917187500 2.87235379375000 
 S -3.73293192812500 1.32343617187500 7.53839779375000 
 S -3.42420092812500 5.30809217187500 6.94864479375000 
