16

 C -3.06591274375000 1.61727369375000 5.68982774687500 
 C -3.04541274375000 5.28125969375000 5.76161174687500 
 C -4.16249674375000 0.900329693750002 5.07441974687500 
 C -4.29344574375000 4.92752169375000 5.12862774687500 
 N -1.98799774375000 1.74733769375000 4.88902374687500 
 N -2.02944674375000 5.35043569375000 4.91529374687500 
 N -3.88557874375000 0.586232693750001 3.80930074687500 
 N -4.23265874375000 4.76184169375000 3.82235974687500 
 N -4.87927574375000 1.42665469375000 7.56898274687500 
 N -4.88789174375000 5.22196169375000 7.55400574687500 
 S -5.54798474375000 0.781851693750001 6.18751874687500 
 S -5.68947774375000 4.83556569375000 6.18067374687500 
 S -2.35131574375000 1.22049969375000 3.37804074687500 
 S -2.64774574375000 5.03795469375000 3.41950274687500 
 S -3.32805174375000 2.01320469375000 7.34872774687500 
 S -3.31336174375000 5.58416169375000 7.43279574687500 
