16

 C -2.97442406250000 1.53259577187500 5.36191132500000 
 C -3.10428506250000 5.32592177187500 5.52127832500000 
 C -4.10849106250000 0.930815771874999 4.74220332500000 
 C -4.27467306250000 4.62401077187500 4.88116132500000 
 N -1.96931806250000 1.78478877187500 4.47771632500000 
 N -2.03101106250000 5.41830077187500 4.71848332500000 
 N -4.08298306250000 0.717799771874999 3.40909132500000 
 N -4.06446606250000 4.15563077187500 3.64602732500000 
 N -4.54037406250000 1.05588877187500 7.37900232500000 
 N -4.91466206250000 4.86617177187500 7.31013332500000 
 S -5.31451706250000 0.535128771874998 5.98079332500000 
 S -5.60097606250000 4.40143077187500 5.89122132500000 
 S -2.43384606250000 1.16506177187500 2.98541832500000 
 S -2.47923206250000 4.60352377187500 3.28826332500000 
 S -3.00166506250000 1.75086477187500 7.09119432500000 
 S -3.32074606250000 5.42323177187500 7.26865032500000 
