16

 C -2.95923293125000 1.77650815000000 5.62193553750000 
 C -3.10787993125000 5.37238215000000 5.62361653750000 
 C -4.09089493125000 1.08974615000000 5.03612653750000 
 C -4.32051393125000 4.86183915000000 5.02089553750000 
 N -1.92827893125000 1.96110015000000 4.81392353750000 
 N -2.11851093125000 5.64223015000000 4.77409253750000 
 N -3.86705393125000 0.632504150000000 3.79644753750000 
 N -4.18719293125000 4.51625715000000 3.73433953750000 
 N -4.76784893125000 1.40567115000000 7.55833453750000 
 N -4.83149193125000 5.32098315000000 7.48406953750000 
 S -5.43801093125000 0.774213150000000 6.14641553750000 
 S -5.69183493125000 4.97659615000000 6.12038953750000 
 S -2.37175193125000 1.11433215000000 3.33017553750000 
 S -2.59587393125000 4.95753515000000 3.32622053750000 
 S -3.27754593125000 2.11630415000000 7.33471953750000 
 S -3.24382493125000 5.65073415000000 7.26959853750000 
