16

 C -3.13849680312500 1.50490991249999 5.61035482500000 
 C -2.89439780312500 5.34742191250000 5.39118982500000 
 C -4.38090680312500 0.973487912499995 5.05995482500000 
 C -4.14340880312500 4.88226191249999 4.84222482500000 
 N -2.16645880312500 1.63476291249999 4.70084882500000 
 N -1.92625080312500 5.60552091249999 4.52644382500000 
 N -4.31103680312500 0.587969912499995 3.77999582500000 
 N -4.13197080312500 4.76892291249999 3.51679482500000 
 N -4.61335880312500 1.15859591249999 7.66244582500000 
 N -4.55266680312500 4.91427591249999 7.33240482500000 
 S -5.57735780312500 0.775396912499995 6.31673482500000 
 S -5.45895980312500 4.65386491250000 5.95929982500000 
 S -2.80286680312500 1.12257491249999 3.21948782500000 
 S -2.66500780312500 5.23519191250000 2.99109882500000 
 S -3.04304280312500 1.61716091249999 7.26414182500000 
 S -2.98491180312500 5.40278891249999 7.23201782500000 
