16

 C -3.11316324687500 1.42330934062500 5.54365185312500 
 C -3.36099424687500 5.23204534062500 5.41749685312500 
 C -4.37398024687500 0.943733340624997 4.89456085312500 
 C -4.55247424687500 4.81692434062500 4.71013685312500 
 N -2.09950124687500 1.61896634062500 4.67094385312500 
 N -2.32213124687500 5.47836534062500 4.65080685312500 
 N -4.16650724687500 0.690694340624997 3.60253985312500 
 N -4.40245324687500 4.69171734062500 3.40219585312500 
 N -4.87698624687500 1.24806034062500 7.47204185312500 
 N -5.07933224687500 4.75008334062500 7.23836985312500 
 S -5.63292124687500 0.640556340624998 6.08471085312500 
 S -5.85116624687500 4.45431434062500 5.77862785312500 
 S -2.60468424687500 1.28110334062500 3.12871285312500 
 S -2.80212324687500 5.21013934062500 3.10594985312500 
 S -3.28630924687500 1.60910034062500 7.24862985312500 
 S -3.52833924687500 5.25835834062500 7.20696185312500 
