16

 C -3.74249515312500 1.24006852500000 5.64361171250000 
 C -3.04026115312500 5.06844752500000 5.39290871250000 
 C -4.82260015312500 0.570468525000001 4.94775071250000 
 C -4.18132915312500 4.41481852500000 4.82160171250000 
 N -2.68895415312500 1.42182452500000 4.86571371250000 
 N -2.03032615312500 5.12594852500000 4.54820471250000 
 N -4.60108115312500 0.323636525000001 3.66070771250000 
 N -4.09678515312500 4.07501852500000 3.54412271250000 
 N -5.35073215312500 0.550393525000000 7.38454671250000 
 N -4.69419215312500 4.86854952500000 7.32369271250000 
 S -6.14919215312500 0.196889525000000 5.92915771250000 
 S -5.49598715312500 4.35603552500000 5.94655371250000 
 S -3.13819415312500 1.01050652500000 3.34582671250000 
 S -2.61452515312500 4.58010452500000 3.07244371250000 
 S -3.81679815312500 1.16292852500000 7.30216671250000 
 S -3.11984215312500 5.40874652500000 7.09827971250000 
