16

 C -3.14602681562500 1.50930712812500 5.66852068750000 
 C -3.01985681562500 4.59984012812500 5.43010968750000 
 C -4.33834381562500 1.06295112812500 5.06517468750000 
 C -4.21220581562500 4.10022312812500 4.81738568750000 
 N -2.05401281562500 1.55616712812500 4.87544368750000 
 N -2.04728981562500 4.81966012812500 4.56357468750000 
 N -4.29021181562500 0.828618128124996 3.72519068750000 
 N -4.14418481562500 3.82725112812500 3.52453568750000 
 N -4.87136881562500 1.33281312812500 7.68261968750000 
 N -4.83392981562500 4.49860012812500 7.27675168750000 
 S -5.67700481562500 1.03938812812500 6.28492968750000 
 S -5.60162581562500 4.10114212812500 5.85237668750000 
 S -2.69309981562500 1.13490612812500 3.38616768750000 
 S -2.58197581562500 4.27824512812500 3.12051668750000 
 S -3.24345481562500 1.67212212812500 7.41805368750000 
 S -3.21927881562500 4.69579912812500 7.16717768750000 
