16

 C -3.12013953750000 1.44790472187500 5.46143142187500 
 C -3.35794153750000 5.29662472187500 5.19468342187500 
 C -4.26142753750000 0.735727721875000 4.94336642187500 
 C -4.33177253750000 4.38900272187500 4.67673242187500 
 N -2.18904253750000 1.66923072187500 4.54033742187500 
 N -2.40109253750000 5.64541372187500 4.32564242187500 
 N -4.17202553750000 0.511856721875001 3.63902442187500 
 N -4.09674353750000 4.04542372187500 3.40733842187500 
 N -4.79116353750000 1.27877872187500 7.40008542187500 
 N -5.21623253750000 4.93067172187500 7.00624142187500 
 S -5.53568053750000 0.626128721875000 6.08611642187500 
 S -5.71849253750000 4.10959372187500 5.63446942187500 
 S -2.68006553750000 1.05323272187500 3.08855342187500 
 S -2.74002053750000 4.74569972187500 2.95639442187500 
 S -3.22537453750000 1.74831772187500 7.12602142187500 
 S -3.70294053750000 5.67764572187500 6.88982442187500 
