16

 C -3.23271274687500 1.28150676250000 5.56966820625000 
 C -3.28494274687500 5.07630076250000 5.40802820625000 
 C -4.46574774687500 1.17781676250000 4.85068420625000 
 C -4.50749174687500 4.68491476250000 4.75835820625000 
 N -2.18151974687500 1.21885476250000 4.80830920625000 
 N -2.18744074687500 4.97024676250000 4.65897920625000 
 N -4.30015774687500 0.863887762499999 3.56811520625000 
 N -4.40115974687500 4.38437776250000 3.47600620625000 
 N -5.02022674687500 1.33852476250000 7.36308420625000 
 N -5.01617774687500 5.02270376250000 7.26526420625000 
 S -5.82825474687500 1.33870476250000 5.90357820625000 
 S -5.77944774687500 4.46371576250000 5.92386920625000 
 S -2.70585474687500 0.952448762500000 3.22657320625000 
 S -2.79600574687500 4.44622976250000 3.13704320625000 
 S -3.36063174687500 1.39577776250000 7.23406120625000 
 S -3.43639374687500 5.58325176250000 7.08080420625000 
