16

 C -3.29492746562500 1.26184083750000 5.53374682812500 
 C -3.10846846562500 5.12878883750000 5.41248582812500 
 C -4.59102346562500 0.902234837500000 4.96040382812500 
 C -4.36545046562500 4.70915883750000 4.79632282812500 
 N -2.30396546562500 1.38764783750000 4.67903182812500 
 N -2.00974746562500 5.19943383750000 4.64047482812500 
 N -4.56519046562500 0.741302837500001 3.64934182812500 
 N -4.22707446562500 4.69847383750000 3.47444382812500 
 N -4.81586746562500 0.817143837500000 7.49571482812500 
 N -4.81412546562500 4.60584083750000 7.29264182812500 
 S -5.85031146562500 0.853814837500000 6.14865782812500 
 S -5.72175546562500 4.58910283750000 5.86016782812500 
 S -2.99726646562500 1.07508383750000 3.20719982812500 
 S -2.62197746562500 5.01415683750000 3.10017782812500 
 S -3.28932046562500 1.47482083750000 7.25655882812500 
 S -3.25155446562500 5.15630983750000 7.16391582812500 
