16

 C -2.91676827812500 1.62825697500000 5.28939154687500 
 C -3.26655927812500 4.94836897500000 5.61280154687500 
 C -4.11027927812500 0.983985975000001 4.73928754687500 
 C -4.45284427812500 4.52615797500000 4.92495154687500 
 N -1.93338827812500 1.85870697500000 4.41342654687500 
 N -2.30854127812500 5.30454197500000 4.77745454687500 
 N -4.08417027812500 0.840862975000001 3.40179054687500 
 N -4.40745727812500 4.47495797500000 3.59505454687500 
 N -4.35655727812500 1.03028897500000 7.29113554687500 
 N -5.04262527812500 4.50362497500000 7.41265454687500 
 S -5.28642127812500 0.626893975000002 5.99585654687500 
 S -5.71245527812500 4.03684097500000 5.96324054687500 
 S -2.57050327812500 1.34314397500000 2.98534954687500 
 S -2.88747227812500 5.06880497500000 3.25194954687500 
 S -2.88252227812500 1.72640897500000 6.97902554687500 
 S -3.42180427812500 4.94128597500000 7.31858654687500 
