16

 C -2.83295885937500 1.35755378125000 5.68532480312500 
 C -3.09203185937500 4.79903378125000 5.44023380312500 
 C -3.95213685937500 0.681533781250002 5.18307080312500 
 C -4.30870585937500 4.32461278125000 4.88052880312500 
 N -1.77305685937500 1.46537278125000 4.87012980312500 
 N -2.03059385937500 4.75857278125000 4.59412880312500 
 N -3.83676685937500 0.266293781250002 3.92658280312500 
 N -4.23310485937500 4.12767578125000 3.55191480312500 
 N -4.68090385937500 1.53796978125000 7.56701980312500 
 N -4.82966585937500 5.05560178125000 7.31157980312500 
 S -5.40060785937500 0.868346781250002 6.28365180312500 
 S -5.66841385937500 4.65734478125000 5.96976080312500 
 S -2.33545585937500 0.812327781250002 3.36516580312500 
 S -2.66237685937500 4.47736978125000 3.07109380312500 
 S -3.07013485937500 1.88724578125000 7.39302380312500 
 S -3.24303185937500 5.34848978125000 7.08054180312500 
