16

 C -3.47908959687500 1.55017546250000 5.52099299062500 
 C -2.98072659687500 5.16797746250000 5.44843799062500 
 C -4.47043059687500 0.668557462499995 4.91043299062500 
 C -4.19585759687500 4.79468946250000 4.72674899062500 
 N -2.42535159687500 1.79999646250000 4.74186599062500 
 N -1.87366059687500 5.22283646249999 4.73621399062500 
 N -4.14006859687500 0.175546462499995 3.73242899062500 
 N -4.00832559687500 4.52792146249999 3.47450099062500 
 N -5.21504559687500 0.921418462499995 7.33916899062500 
 N -4.79839859687500 4.96409146250000 7.20127699062500 
 S -5.78622859687500 0.294114462499995 5.94624199062500 
 S -5.63813559687500 4.92928946250000 5.79914499062500 
 S -2.75716659687500 0.992558462499996 3.29116799062500 
 S -2.41501359687500 4.81571846250000 3.16289299062500 
 S -3.78884759687500 1.80260546250000 7.20346399062500 
 S -3.20686659687500 5.46886546249999 7.15429899062500 
