16

 C -3.43046820000000 1.77444070937501 5.55773035625000 
 C -2.99974620000000 5.16118770937500 5.60571735625000 
 C -4.63479520000000 1.33152670937501 4.89668235625000 
 C -4.34482320000000 4.97750670937500 5.02840335625000 
 N -2.38918420000000 1.89348770937501 4.76892235625000 
 N -2.01267820000000 5.20458970937501 4.69372335625000 
 N -4.50866520000000 1.02797070937500 3.59903535625000 
 N -4.33235220000000 4.83222970937500 3.65984135625000 
 N -5.22518620000000 1.44817070937500 7.44066035625000 
 N -4.58064120000000 5.12665670937501 7.57907435625000 
 S -5.99716220000000 1.04665870937501 5.96453735625000 
 S -5.58939820000000 4.93987070937501 6.26078535625000 
 S -2.95404520000000 1.48169970937501 3.23469735625000 
 S -2.69153020000000 4.95018970937500 3.24095935625000 
 S -3.61495120000000 1.78430970937501 7.34237935625000 
 S -2.98920320000000 5.27366470937501 7.34019735625000 
