16

 C -2.91915353125000 1.63257264687500 5.37291667812500 
 C -3.22362553125000 5.14739464687500 5.61286167812500 
 C -4.17156653125000 1.21387164687500 4.81466567812500 
 C -4.43824053125000 4.74570764687500 4.92674267812500 
 N -1.93169653125000 1.70023164687500 4.49956067812500 
 N -2.20781853125000 5.23687664687500 4.77085867812500 
 N -4.26704353125000 1.11407664687500 3.47798867812500 
 N -4.39959553125000 4.73628064687500 3.60245167812500 
 N -4.63935053125000 1.61173564687500 7.42977767812500 
 N -4.95605953125000 4.62008164687500 7.50776567812500 
 S -5.44759853125000 1.16259464687500 6.08281867812500 
 S -5.72075453125000 4.43041464687500 5.99250367812500 
 S -2.65182253125000 1.24805564687500 3.00239967812500 
 S -2.77527353125000 4.98420764687500 3.23512967812500 
 S -3.03921953125000 1.98228764687500 7.14634667812500 
 S -3.39788853125000 5.19995764687500 7.38867467812500 
