16

 C -3.00744365312500 1.34617770000000 5.74327257500000 
 C -3.15228365312500 5.09444370000000 5.54052157500000 
 C -4.29184565312500 0.925242699999999 5.16453557500000 
 C -4.42032565312500 4.68749570000000 4.95866557500000 
 N -1.95549665312500 1.12791270000000 4.95928557500000 
 N -2.17682065312500 5.13652170000000 4.67581557500000 
 N -4.24155865312500 0.556472699999998 3.87013357500000 
 N -4.39759665312500 4.53145270000000 3.65122457500000 
 N -4.73591165312500 1.48643770000000 7.70566757500000 
 N -4.83124565312500 4.97500270000000 7.44286257500000 
 S -5.59749665312500 1.00243170000000 6.31340457500000 
 S -5.70093265312500 4.51752270000000 6.16587057500000 
 S -2.63331665312500 0.623245699999999 3.46267657500000 
 S -2.80709165312500 4.70089470000000 3.19466957500000 
 S -3.10988165312500 1.83836670000000 7.43494457500000 
 S -3.22952865312500 5.35146170000000 7.22006357500000 
