16

 C -3.06309372187500 1.35247164062500 5.62615202812500 
 C -3.03518972187500 5.02999264062500 5.36952402812500 
 C -4.29637772187500 0.942285640625002 4.99911402812500 
 C -4.19606672187500 4.27073664062500 4.90290102812500 
 N -1.98831172187500 1.32248864062500 4.84806102812500 
 N -1.98192572187500 4.97750564062500 4.57177702812500 
 N -4.15590572187500 0.678381640625002 3.68060802812500 
 N -4.03699772187500 3.90251864062500 3.64944402812500 
 N -4.76358572187500 1.19252264062500 7.58671602812500 
 N -4.72781572187500 5.07492164062500 7.34056102812500 
 S -5.61204772187500 0.827955640625002 6.17220002812500 
 S -5.42984072187500 4.27136664062500 6.07660102812500 
 S -2.58698072187500 0.960405640625003 3.30203502812500 
 S -2.49577472187500 4.32199264062500 3.17489202812500 
 S -3.13321672187500 1.55418564062500 7.42429902812500 
 S -3.11114372187500 5.40003764062500 7.09278102812500 
