16

 C -3.08325047812500 1.58648280625000 5.48464405312500 
 C -2.88359947812500 4.90786280625000 5.40321505312500 
 C -4.35146847812500 1.13625480625000 4.94869605312500 
 C -4.20058347812500 4.72075180625000 4.78507505312500 
 N -2.06244347812500 1.59933080625000 4.60669805312500 
 N -1.89271747812500 4.86345680625000 4.53731905312500 
 N -4.26784147812500 0.803051806249999 3.65453405312500 
 N -4.19896347812500 4.40038580625000 3.50722005312500 
 N -4.85470147812500 1.40843080625000 7.39233005312500 
 N -4.70067347812500 5.16492080625000 7.30354205312500 
 S -5.65277047812500 0.825297806249999 6.00226005312500 
 S -5.55590547812500 4.93805280625000 5.89537105312500 
 S -2.71299947812500 1.18826580625000 3.16445105312500 
 S -2.61211847812500 4.45466680625000 3.04462705312500 
 S -3.25850147812500 1.82741680625000 7.20078805312500 
 S -3.07028447812500 5.28974380625000 7.06362105312500 
