16

 C -3.35442367500000 1.23963865312500 5.52686553125000 
 C -3.28030567500000 4.96866965312500 5.11736153125000 
 C -4.59296767500000 0.872351653125001 4.86859053125000 
 C -4.41414767500000 4.38515365312500 4.50638253125000 
 N -2.31012067500000 1.32801265312500 4.71623153125000 
 N -2.25076867500000 5.23201265312500 4.31848853125000 
 N -4.44831067500000 0.859120653125001 3.57174453125000 
 N -4.23846567500000 4.07750565312500 3.23221953125000 
 N -5.15699267500000 1.06348965312500 7.32564753125000 
 N -4.98602867500000 4.90997165312500 6.99572253125000 
 S -5.92262867500000 0.614202653125001 5.88826653125000 
 S -5.74237767500000 4.39024565312500 5.62375553125000 
 S -2.87003067500000 1.17725065312500 3.16076353125000 
 S -2.72572467500000 4.62220865312500 2.80819053125000 
 S -3.55433767500000 1.46569665312500 7.21875253125000 
 S -3.36830567500000 5.25243465312500 6.76772253125000 
