16

 C -3.00818337500000 1.27334547187500 5.65961865937500 
 C -3.00945837500000 5.21072947187500 5.37474665937500 
 C -4.16689637500000 0.784103471875001 4.96871865937500 
 C -4.05524337500000 4.28037247187500 4.96424065937500 
 N -1.97521937500000 1.42948947187500 4.84804465937500 
 N -2.00307037500000 5.21074747187500 4.51545765937500 
 N -4.08991737500000 0.648120471875002 3.64424065937500 
 N -3.96868737500000 3.84820347187500 3.72607965937500 
 N -4.74673337500000 0.951089471875002 7.52663765937500 
 N -4.83476037500000 5.18575247187500 7.29323265937500 
 S -5.57177037500000 0.737261471875001 6.03844265937500 
 S -5.40385237500000 4.18356947187500 6.09934165937500 
 S -2.47399237500000 0.994147471875001 3.32105165937500 
 S -2.50819937500000 4.40372347187500 3.16586065937500 
 S -3.21443737500000 1.60915047187500 7.42077365937500 
 S -3.27403137500000 5.69212247187500 7.01301765937500 
