16

 C -3.22823393437500 1.19186066562500 5.56381445625000 
 C -3.15969893437500 5.52298766562500 5.72763745625000 
 C -4.42512693437500 0.709977665624999 4.91663745625000 
 C -4.22690593437500 4.82012966562500 5.02888145625000 
 N -2.23077093437500 1.32739966562500 4.64263245625000 
 N -2.15886993437500 5.94938366562500 4.91291045625000 
 N -4.37990993437500 0.580500665624999 3.58365945625000 
 N -4.09734593437500 4.88315766562500 3.70406645625000 
 N -4.97428093437500 0.824759665624999 7.42084545625000 
 N -4.82887893437500 4.67907666562500 7.46738145625000 
 S -5.76752093437500 0.490718665624999 5.97440945625000 
 S -5.57779093437500 4.35455666562500 6.04010845625000 
 S -2.86981793437500 1.16680766562500 3.13555045625000 
 S -2.69550393437500 5.55990966562500 3.36314845625000 
 S -3.39322093437500 1.23186866562500 7.27197045625000 
 S -3.31059093437500 5.40056666562500 7.41253345625000 
