16

 C -2.84845797500000 1.69114095312500 5.71572850937500 
 C -3.03989297500000 5.25263895312500 5.70883350937500 
 C -4.14149897500000 1.65019295312500 5.10858550937500 
 C -4.35561797500000 4.98694995312500 5.15394050937500 
 N -1.83406097500000 1.70941495312500 4.82639150937500 
 N -2.08292297500000 5.32669395312500 4.75542550937500 
 N -4.16587497500000 1.56217495312500 3.75792050937500 
 N -4.39374497500000 4.75051395312500 3.85150150937500 
 N -4.61655897500000 1.63619795312500 7.62023650937500 
 N -4.82942297500000 5.26040695312500 7.60458350937500 
 S -5.49426997500000 1.41569295312500 6.22210850937500 
 S -5.67153297500000 4.75153795312500 6.28660450937500 
 S -2.54469797500000 1.78062695312500 3.29395550937500 
 S -2.84806097500000 5.00040195312500 3.32630650937500 
 S -2.97559397500000 1.86071995312500 7.47831450937500 
 S -3.25841297500000 5.60108995312500 7.39200450937500 
