16

 C -3.27770474687500 1.43864948750000 5.66082272500000 
 C -3.55465574687500 5.34226748750000 5.52700272500000 
 C -4.40888274687500 0.838218487500001 5.05104572500000 
 C -4.58610474687500 4.55486248750000 4.88697572500000 
 N -2.32239374687500 1.79916648750000 4.77862972500000 
 N -2.48876274687500 5.59916748750000 4.73669072500000 
 N -4.35993574687500 0.772678487500001 3.72320272500000 
 N -4.47508974687500 4.48210748750000 3.55475272500000 
 N -4.86448374687500 0.928962487500001 7.57957372500000 
 N -5.37939674687500 4.94614548750000 7.29263872500000 
 S -5.70961274687500 0.496719487500001 6.16309872500000 
 S -5.91993174687500 4.11930048750000 5.92150372500000 
 S -2.80474074687500 1.27072048750000 3.28315572500000 
 S -2.96734974687500 5.03886748750000 3.22500072500000 
 S -3.33836674687500 1.55856148750000 7.39407872500000 
 S -3.81127574687500 5.57073148750000 7.13119772500000 
