16

 C -3.08344302812500 1.45692671250000 5.52051265937500 
 C -3.26508202812500 5.05031771250000 5.41406565937500 
 C -4.23861402812500 0.836386712500003 4.81005965937500 
 C -4.49459502812500 4.48632571250000 4.85757965937500 
 N -1.99781702812500 1.59464771250000 4.76353565937500 
 N -2.25654702812500 5.13243271250000 4.56507665937500 
 N -4.03533202812500 0.581190712500003 3.52018665937500 
 N -4.45672802812500 4.31858471250000 3.54009665937500 
 N -4.97343602812500 1.37673171250000 7.18526565937500 
 N -4.90909602812500 5.25540471250000 7.28237665937500 
 S -5.66441002812500 0.839065712500004 5.73720665937500 
 S -5.76585302812500 4.52404671250000 6.07727665937500 
 S -2.44221502812500 1.05306571250000 3.23929165937500 
 S -2.85558602812500 4.63204271250000 3.09425765937500 
 S -3.35667402812500 1.89413171250000 7.12878165937500 
 S -3.31252702812500 5.60579471250000 7.04173565937500 
