16

 C -3.14651864687500 1.34314732187500 5.50311890937500 
 C -3.10608564687500 4.91814932187500 5.69070790937500 
 C -4.40444264687500 0.944478321875000 4.98068390937500 
 C -4.34425264687500 4.44996132187500 5.09776190937500 
 N -2.20081264687500 1.55236632187500 4.61066290937500 
 N -2.15383964687500 5.25393232187500 4.78876890937500 
 N -4.42811464687500 0.704368321874999 3.66412190937500 
 N -4.18442164687500 4.15653032187500 3.81218290937500 
 N -4.92983564687500 1.37407332187500 7.44064990937500 
 N -4.94661964687500 4.73719832187500 7.60588590937500 
 S -5.74017764687500 0.923335321874999 6.14014490937500 
 S -5.70969264687500 4.21341632187500 6.18255190937500 
 S -2.89061064687500 1.02597732187500 3.18290090937500 
 S -2.70886864687500 4.69817732187500 3.29824090937500 
 S -3.33596064687500 1.72888132187500 7.20116790937500 
 S -3.35536964687500 5.30323032187500 7.43005990937500 
