16

 C -3.23524198750000 0.861335178125000 5.48497614687500 
 C -3.30688598750000 5.12082817812500 5.47088614687500 
 C -4.49330098750000 0.575883178125000 4.74008614687500 
 C -4.49192698750000 4.62190017812500 4.81032114687500 
 N -2.21928798750000 1.10504917812500 4.66389514687500 
 N -2.28977698750000 5.38937517812500 4.69869714687500 
 N -4.45322098750000 0.582364178125000 3.40458914687500 
 N -4.35895798750000 4.55497117812500 3.48095614687500 
 N -5.14117698750000 0.717572178125000 7.26158414687500 
 N -4.98592198750000 4.47115417812500 7.35402514687500 
 S -5.88059998750000 0.575800178125000 5.75859414687500 
 S -5.76725198750000 4.15858917812500 5.88361714687500 
 S -2.82045398750000 0.958426178125000 3.14033314687500 
 S -2.74017998750000 5.04348117812500 3.18438714687500 
 S -3.46306498750000 0.860871178125000 7.21405514687500 
 S -3.54522898750000 5.27635717812500 7.21582414687500 
