16

 C -3.74104020625000 1.22192235312500 5.75098935937500 
 C -3.09849620625000 5.06514335312500 5.33879835937500 
 C -4.78790420625000 0.715438353124999 4.96998135937500 
 C -4.32823420625000 4.45841935312500 4.83155535937500 
 N -2.65412020625000 1.53489035312500 5.07841035937500 
 N -2.12646620625000 5.07696235312500 4.43247235937500 
 N -4.56930820625000 0.686827353124999 3.65933935937500 
 N -4.34397320625000 4.21614835312500 3.51872135937500 
 N -5.61278420625000 0.690025353124999 7.31904735937500 
 N -4.79464020625000 4.96385735312500 7.30484235937500 
 S -6.26256420625000 0.309135353124999 5.83918735937500 
 S -5.61450420625000 4.31828535312500 6.01411335937500 
 S -2.94206120625000 1.14684435312500 3.48317635937500 
 S -2.82182720625000 4.61576735312500 2.96369235937500 
 S -4.08606820625000 1.28537735312500 7.40199935937500 
 S -3.22472520625000 5.51191735312500 7.01619535937500 
