16

 C -3.03220130000000 1.25200309687500 5.71947393125000 
 C -3.21575930000000 5.31377909687500 5.37603693125000 
 C -4.17168430000000 0.682947096874999 5.00032593125000 
 C -4.26869630000000 4.47698109687500 4.87942993125000 
 N -2.05825530000000 1.52461209687500 4.86512293125000 
 N -2.24485430000000 5.58055809687500 4.47727693125000 
 N -4.00597730000000 0.484888096874998 3.67252293125000 
 N -3.97285830000000 3.85990509687500 3.72463893125000 
 N -4.88794430000000 1.05887509687500 7.43191393125000 
 N -4.99778830000000 5.11236009687500 7.22084693125000 
 S -5.50091430000000 0.323620096874999 6.01876993125000 
 S -5.51671730000000 4.12719909687500 6.04471793125000 
 S -2.45776030000000 0.927872096874998 3.34717793125000 
 S -2.59814130000000 4.56731109687500 3.16731293125000 
 S -3.27886030000000 1.63105209687500 7.40403593125000 
 S -3.59093930000000 5.88092109687500 6.96359493125000 
