16

 C -3.48843269062500 1.54800882500000 5.52914347812500 
 C -2.96945469062500 5.17578382500000 5.46267447812500 
 C -4.47111869062500 0.665758825000004 4.91934147812500 
 C -4.18970769062500 4.80629182500000 4.73416147812500 
 N -2.43531069062500 1.79070482500000 4.75112347812500 
 N -1.88076769062500 5.22831882500000 4.73621147812500 
 N -4.14568469062500 0.175473825000004 3.72155347812500 
 N -4.00695369062500 4.54044282500000 3.48429847812500 
 N -5.20632869062500 0.937385825000003 7.33098947812500 
 N -4.79468069062500 4.96426882500000 7.21471647812500 
 S -5.78742369062500 0.293608825000004 5.96496347812500 
 S -5.63261969062500 4.91807882500000 5.79055947812500 
 S -2.74826769062500 0.996772825000004 3.28372447812500 
 S -2.42917869062500 4.82277382500000 3.14775547812500 
 S -3.77565869062500 1.80793982500000 7.19942847812500 
 S -3.19459169062500 5.46710482500000 7.16844547812500 
