16

 C -3.10905448749999 1.57762165312500 5.46876160000000 
 C -3.21897248749999 5.27035665312500 5.94847060000000 
 C -4.30170048749999 1.06847265312500 4.79796860000000 
 C -4.44639448749999 5.00233965312500 5.33281560000000 
 N -2.18866848749999 1.91597265312500 4.54971260000000 
 N -2.15317048749999 5.33796965312500 5.13355760000000 
 N -4.24444048749999 0.934426653124998 3.47442960000000 
 N -4.33447348749999 4.88491265312500 3.97667260000000 
 N -4.92907348749999 0.986740653124999 7.25251860000000 
 N -4.87477948749999 5.13859465312500 7.90016460000000 
 S -5.67545348749999 0.673701653124999 5.78226960000000 
 S -5.79056748749999 4.94811165312500 6.47388060000000 
 S -2.73258348749999 1.40798865312500 3.08278860000000 
 S -2.66760548749999 5.04654265312500 3.64754460000000 
 S -3.35766648749999 1.42062165312500 7.22708460000000 
 S -3.21655748749999 5.39107965312500 7.66418760000000 
