16

 C -3.19855842500000 1.60262914375000 5.65107581562500 
 C -2.96087742500000 5.44692514375000 5.53154781562500 
 C -4.39240942500000 1.27366614375000 4.83058381562500 
 C -4.24985142500000 4.98239414375000 5.00357681562500 
 N -2.14337942500000 1.87993614375000 4.91558881562500 
 N -1.96158142500000 5.38818114375000 4.65249881562500 
 N -4.19207742500000 1.26430914375000 3.51569681562501 
 N -4.23072942500000 4.77830514375000 3.70237281562500 
 N -5.03637942500000 0.743088143749999 7.23723981562500 
 N -4.77413642500000 5.14804314375000 7.43264581562500 
 S -5.74298742500000 0.766822143749999 5.71353381562500 
 S -5.59585742500000 4.87391214375000 6.05080281562500 
 S -2.63765742500000 1.72680214375000 3.27959081562500 
 S -2.67614342500000 4.99688014375000 3.17515281562500 
 S -3.43199542500000 1.27305114375000 7.29955581562500 
 S -3.20364242500000 5.45649414375000 7.27332081562500 
