16

 C -3.02955060937500 1.63057084375000 5.39901891250000 
 C -3.22479860937500 5.12913484375000 5.58115191250000 
 C -4.32997860937500 1.12564684375000 4.86729091250000 
 C -4.46655460937500 4.78367684375000 4.95040191250000 
 N -1.98791660937500 1.61403684375000 4.58603591250000 
 N -2.17885560937500 5.34644784375000 4.79301891250000 
 N -4.24116460937500 0.735981843750001 3.59429991250000 
 N -4.33579960937500 4.69522984375000 3.62081091250000 
 N -4.62350660937500 1.20004384375000 7.33263991250000 
 N -4.96946160937500 4.80578684375000 7.41625291250000 
 S -5.59734560937500 1.04898284375000 6.02721791250000 
 S -5.80279960937500 4.32255384375000 6.01949791250000 
 S -2.70113460937500 1.16200784375000 3.13063791250000 
 S -2.73984260937500 5.03942784375000 3.23183691250000 
 S -3.07311960937500 1.79746084375000 7.09276391250000 
 S -3.35238260937500 5.07044184375000 7.28857891250000 
