16

 C -3.36806972812501 1.58436842812500 5.77536110000000 
 C -3.05537272812501 5.34119742812500 5.82841010000000 
 C -4.51398072812501 1.08624842812500 5.08774110000000 
 C -4.25958972812501 4.80695142812500 5.25847210000000 
 N -2.24280972812501 1.79199342812500 5.09563210000000 
 N -2.05439672812501 5.42356742812500 4.97153010000000 
 N -4.31737472812501 1.01713142812500 3.73202810000000 
 N -4.17249072812501 4.59660042812500 3.95004110000000 
 N -5.00255272812501 1.27294542812500 7.66440710000000 
 N -4.89976772812501 4.93005142812500 7.72538710000000 
 S -5.78003972812501 0.762974428125002 6.29535010000000 
 S -5.50173472812501 4.30868342812500 6.27712910000000 
 S -2.57315372812501 1.27620042812500 3.54854610000000 
 S -2.62234072812501 4.88400842812500 3.48115310000000 
 S -3.45029872812501 1.87772442812500 7.48221710000000 
 S -3.32361072812501 5.50711642812500 7.58394210000000 
