16

 C -3.21179475937500 1.20061783125000 5.27360907187500 
 C -2.93914675937500 5.04147783125000 5.40979407187500 
 C -4.45965275937500 0.762333831250002 4.64519607187500 
 C -4.07733875937500 4.41737783125000 4.81465007187500 
 N -2.16860775937500 1.21066583125000 4.44906707187500 
 N -1.93858475937500 5.33919283125000 4.57083407187500 
 N -4.40076275937500 0.544680831250002 3.34079807187500 
 N -3.94336075937500 4.20979783125000 3.51200207187500 
 N -5.10198075937500 1.62149383125000 6.97257507187500 
 N -4.83889775937500 5.12966783125000 7.20611907187500 
 S -5.87231675937500 0.970492831250001 5.64205207187500 
 S -5.44266275937500 4.37640683125000 5.85595607187500 
 S -2.84774875937500 0.856942831250001 2.95899007187500 
 S -2.44615675937500 4.79960783125000 3.05832807187500 
 S -3.41799475937500 1.65174283125000 6.96629207187500 
 S -3.21220475937500 5.60629583125000 7.09494307187500 
