16

 C -3.00334217187500 1.39420859374999 5.30619951875000 
 C -3.26484217187500 5.18268459374999 5.65585451875000 
 C -4.29786117187500 1.00792959374999 4.77770951875000 
 C -4.46705717187500 4.72217559374999 4.96484251875000 
 N -2.05749417187500 1.43798059374999 4.36008951875000 
 N -2.19019317187500 5.40079659374999 4.88934151875000 
 N -4.29348817187500 0.626431593749993 3.52406951875000 
 N -4.27157717187500 4.55435059374999 3.64827651875000 
 N -4.85014317187500 1.48480359374999 7.26440151875000 
 N -4.75102217187500 4.82519559374999 7.58976451875000 
 S -5.61089217187500 1.08449759374999 5.80226251875000 
 S -5.78777017187500 4.61851059374999 6.26755751875000 
 S -2.78699717187500 0.716419593749993 3.00746051875000 
 S -2.68830817187500 4.96903959374999 3.35460251875000 
 S -3.14199517187500 1.70578359374999 7.09179151875000 
 S -3.18947217187500 5.27136059374999 7.40982751875000 
