16

 C -2.95612337187500 1.38504080625000 5.27007249687500 
 C -3.20840237187500 5.09556180625000 5.31387149687500 
 C -4.28382937187500 0.979234806250003 4.78294649687500 
 C -4.44400637187500 4.47104980625000 4.88061949687500 
 N -1.96765937187500 1.42318280625000 4.38735949687500 
 N -2.28341837187500 5.39430380625000 4.41271849687500 
 N -4.25023837187500 0.608403806250004 3.53965749687500 
 N -4.51478137187500 4.35019580625000 3.55994349687500 
 N -4.55450537187500 1.32553080625000 7.40703249687500 
 N -4.78074337187500 4.90087380625000 7.32470549687500 
 S -5.49252537187500 0.894015806250004 6.06404849687500 
 S -5.63862037187500 4.18779480625000 6.06548449687500 
 S -2.72377537187500 1.01097980625000 2.93499249687500 
 S -3.10343337187500 4.92732380625000 2.96501849687500 
 S -2.95616437187500 1.61228480625000 7.02191249687500 
 S -3.26192937187500 5.36472780625000 7.07811649687500 
