16

 C -3.06887238125000 1.06363091875000 5.43396116875000 
 C -3.13611938125000 4.85221591875000 5.47071216875000 
 C -4.29226438125000 0.698068918749998 4.75075516875000 
 C -4.44744038125000 4.64928191875000 4.87460716875000 
 N -1.97582238125000 1.22701291875000 4.66410316875000 
 N -2.09934238125000 4.87832891875000 4.64246416875000 
 N -4.18487738125000 0.547525918749998 3.42423416875000 
 N -4.37341038125000 4.36331991875000 3.53828716875000 
 N -4.87352238125000 0.633880918749997 7.25605616875000 
 N -4.83666338125000 5.05854591875000 7.41473116875000 
 S -5.61939938125000 0.326905918749998 5.79398216875000 
 S -5.72698538125000 5.00236591875000 6.01937016875000 
 S -2.55478738125000 0.943454918749998 3.10366116875000 
 S -2.70406738125000 4.52907391875000 3.19094216875000 
 S -3.30335338125000 1.13007991875000 7.19515416875000 
 S -3.16614738125000 4.94416591875000 7.16349516875000 
