16

 C -3.05058388750000 1.29924376875000 5.27214082187500 
 C -2.87275788750000 5.13023476874999 5.57143582187500 
 C -4.28245888750000 0.778450768749996 4.57795682187500 
 C -4.13745988750000 4.61026076875000 5.10247382187500 
 N -2.06626388750000 1.80147176874999 4.49841082187500 
 N -1.98227088750000 5.28622276875000 4.61217582187500 
 N -4.19633088750000 0.885471768749995 3.25017282187500 
 N -4.28421888750000 4.42129376875000 3.79464182187500 
 N -4.68630488750000 0.606652768749996 7.13193382187500 
 N -4.55216988750000 5.08830776875000 7.63104282187500 
 S -5.50224788750000 0.194059768749995 5.70604082187500 
 S -5.37562688750000 4.50461276875000 6.33196182187500 
 S -2.69965588750000 1.55249176875000 2.96949682187500 
 S -2.73700188750000 4.79877676875000 3.17074282187500 
 S -3.10233088750000 1.24818476875000 6.97509482187500 
 S -2.97211688750000 5.44063876875000 7.35242482187500 
