16

 C -3.24574223750000 1.36293204374999 5.83940461250000 
 C -2.94487723750000 4.87083204374999 5.70749661250000 
 C -4.48010123750000 0.879948043749993 5.29543561250000 
 C -4.15177223750000 4.49571704374999 5.02193061250000 
 N -2.26615523750000 1.48857404374999 4.95489861250000 
 N -1.97565923750000 5.22134404374999 4.80772661250000 
 N -4.51991123750000 0.602360043749993 4.00276261250000 
 N -4.09514423750000 4.46572704374999 3.70261561250000 
 N -4.83707423750000 1.40990004374999 7.86601061250000 
 N -4.79804023750000 4.77488204374999 7.40462061250000 
 S -5.78847523750000 1.14823804374999 6.50372861250000 
 S -5.61026123750000 4.43534704374999 6.02420161250000 
 S -2.89385523750000 1.00034404374999 3.50602761250000 
 S -2.54141923750000 4.97537404374999 3.26314061250000 
 S -3.18658023750000 1.73938904374999 7.52320361250000 
 S -3.19893623750000 5.09124904374999 7.41324461250000 
