16

 C -3.05754407812500 1.33308979687500 5.47803949687500 
 C -2.90066607812500 5.19611279687500 5.48490049687500 
 C -4.20909707812500 0.875839796875002 4.69418249687500 
 C -4.16388107812500 4.92811479687500 4.92219349687500 
 N -1.98991907812500 1.56755079687500 4.77377649687500 
 N -1.91808207812500 5.26950979687500 4.58420149687500 
 N -3.98335407812500 0.672221796875002 3.41554149687500 
 N -4.17608607812500 4.66863779687500 3.61139949687500 
 N -4.97209207812500 1.22453779687500 7.24072449687500 
 N -4.66591807812500 5.12412079687500 7.32703149687500 
 S -5.59765707812500 0.628980796875004 5.75077149687500 
 S -5.46774607812500 4.99089979687500 5.94205549687500 
 S -2.31137407812500 1.07179079687500 3.23467449687500 
 S -2.59943707812500 4.88060679687500 3.11177049687500 
 S -3.30688507812500 1.35395179687500 7.15659049687500 
 S -3.11502607812500 5.42921179687500 7.21220949687500 
