16

 C -3.03763653750000 1.26580653125000 5.55048571562500 
 C -3.21599053750001 5.07410553125000 5.51580171562500 
 C -4.29675453750001 1.16113153125000 4.88367471562500 
 C -4.45473653750000 4.62931453125000 4.88269171562500 
 N -1.98977053750000 1.30841053125000 4.71161771562500 
 N -2.09218953750000 5.07192453125000 4.73847371562500 
 N -4.17960753750001 0.951595531250000 3.57951571562500 
 N -4.31247553750000 4.33284753125000 3.59697871562500 
 N -4.88093753750000 1.47824553125000 7.32608871562500 
 N -5.03913853750000 5.17040753125000 7.31319371562500 
 S -5.66212553750001 1.52739453125000 5.86990971562500 
 S -5.77738453750001 4.55309953125000 6.00136771562500 
 S -2.62513853750000 1.03552653125000 3.13599571562500 
 S -2.73755653750001 4.62465753125000 3.21593971562500 
 S -3.21883453750000 1.53232953125000 7.25764171562500 
 S -3.42427353750000 5.48566953125000 7.15433971562500 
