16

 C -3.10543054687501 1.36026485937500 5.71245886875000 
 C -2.98584854687501 4.92292085937500 5.49282986875000 
 C -4.44370554687501 1.02694285937500 5.30914786875000 
 C -4.25045254687501 4.74545285937500 4.82040986875000 
 N -2.20603654687501 1.19968485937500 4.76340286875000 
 N -1.92478554687501 4.92651985937500 4.74684486875000 
 N -4.56684154687501 0.732890859375003 4.03895986875000 
 N -4.06870154687501 4.74275885937500 3.48508686875000 
 N -4.75467154687501 1.79297885937500 7.82493786875000 
 N -4.59914554687501 4.60795685937500 7.36016386875000 
 S -5.64349154687501 1.16144785937500 6.48126486875000 
 S -5.55539654687501 4.36057285937500 6.00915186875000 
 S -3.04475454687501 0.575724859375003 3.42557786875000 
 S -2.43342754687501 4.73820385937500 3.18419386875000 
 S -3.07411054687501 1.78528585937500 7.53449386875000 
 S -3.00058754687501 4.89380785937500 7.19249486875000 
