16

 C -3.16673788125000 1.56666844062500 5.43480310312500 
 C -2.99199288125000 5.10018844062500 5.54961110312500 
 C -4.46990888125000 1.45590744062500 4.78377010312500 
 C -4.25454088125000 4.87496244062500 4.90107210312500 
 N -2.10424788125000 1.52176244062500 4.62153510312500 
 N -2.00869888125000 5.24807544062500 4.64873810312500 
 N -4.39892188125000 1.54499944062500 3.44653010312500 
 N -4.26418188125000 4.96562544062500 3.55375010312500 
 N -4.85531988125000 1.51355244062500 7.42152810312500 
 N -4.75561388125000 4.60372844062500 7.40124910312500 
 S -5.75829388125000 1.39671744062500 6.06225310312500 
 S -5.53063088125000 4.38517544062500 5.96010210312500 
 S -2.82850288125000 1.70137544062500 3.10532610312500 
 S -2.74090788125000 5.29113444062500 3.15592310312500 
 S -3.22996288125000 1.67183944062500 7.20394010312500 
 S -3.11115288125000 5.01812444062500 7.30963210312500 
