16

 C -3.16929570312500 1.25038456250000 5.41947638750000 
 C -2.83097370312500 5.18438956250000 5.81311838750000 
 C -4.33829270312500 0.930391562499998 4.72353638750000 
 C -4.05973770312500 4.82052756250000 5.15917938750000 
 N -2.19390270312500 1.64650356250000 4.61600538750000 
 N -1.76851970312500 5.29108356250000 5.00678638750000 
 N -4.23517270312500 0.972009562499998 3.38935338750000 
 N -3.90073070312500 4.63089956250000 3.85048638750000 
 N -4.83732470312500 0.824939562499998 7.22836238750000 
 N -4.75479270312500 5.05955756250000 7.61540338750000 
 S -5.65425870312500 0.454606562499998 5.78933938750000 
 S -5.35491970312500 4.33675256250000 6.21156138750000 
 S -2.69009170312500 1.49122656250000 3.10012938750000 
 S -2.34913070312500 4.95876156250000 3.50596338750000 
 S -3.23747370312500 1.21222956250000 7.13252938750000 
 S -3.12908370312500 5.40197356250000 7.52357338750000 
