16

 C -3.42064460625000 1.07902527500000 5.59236262187500 
 C -3.00328160625000 5.11800127500000 5.46872562187500 
 C -4.62506760625000 0.573112275000001 4.94062462187500 
 C -4.17786660625000 4.55181127500000 4.86903162187500 
 N -2.33068160625000 1.26491727500000 4.82465662187500 
 N -1.93192960625000 5.15862127500000 4.69160762187500 
 N -4.41417060625000 0.442439275000001 3.61252062187500 
 N -3.99835760625000 4.33470127500000 3.55865262187500 
 N -5.29037560625000 0.747793275000000 7.37055962187500 
 N -4.69731760625000 4.80425327500000 7.39599262187500 
 S -5.97173460625000 0.236957275000001 5.95863462187500 
 S -5.45469360625000 4.34650227500000 5.99422262187500 
 S -2.88068260625000 0.872996275000000 3.30010462187500 
 S -2.47279860625000 4.72646827500000 3.16221562187500 
 S -3.67429160625000 1.22588527500000 7.34153762187500 
 S -3.14344360625000 5.36818127500000 7.25011162187500 
