16

 C -3.22884415000000 1.24966736250000 5.71116624375000 
 C -3.16478815000000 5.25562636250000 5.56968824375000 
 C -4.47745915000000 1.06815836250000 5.10329724375000 
 C -4.37130915000000 4.79209036250000 4.93305224375000 
 N -2.18631615000000 1.30570936250000 4.87760324375000 
 N -2.22834715000000 5.59631736250000 4.68536424375000 
 N -4.47089415000000 0.801420362500000 3.80647124375000 
 N -4.26998215000000 4.56676336250000 3.64152924375000 
 N -4.94091815000000 1.42877836250000 7.60671224375000 
 N -5.00157815000000 5.05547436250000 7.43241624375000 
 S -5.76112515000000 1.12078436250000 6.20151124375000 
 S -5.70944515000000 4.51334736250000 5.97267424375000 
 S -2.87807215000000 0.945980362500001 3.37064624375000 
 S -2.72605615000000 5.06153336250000 3.21097824375000 
 S -3.31658115000000 1.47449036250000 7.47443124375000 
 S -3.28821115000000 5.43780636250000 7.34504724375000 
