16

 C -3.05810996875000 1.36920501250000 5.50244969687500 
 C -3.35041496875000 5.29187001250000 5.16643669687500 
 C -4.29670596875000 0.825977012500003 4.83636669687500 
 C -4.37295396875000 4.42173701250000 4.61505769687500 
 N -2.03308896875000 1.63710001250000 4.67374669687500 
 N -2.33193296875000 5.48552601250000 4.34652069687500 
 N -4.13078896875000 0.562556012500003 3.51232269687500 
 N -4.09972196875000 3.89803201250000 3.42196069687500 
 N -4.78901996875000 1.18970901250000 7.36813869687500 
 N -5.17160796875000 4.94673801250000 6.97638169687500 
 S -5.60561096875000 0.662289012500002 5.97246769687500 
 S -5.76029396875000 4.10112701250000 5.67422469687500 
 S -2.58870696875000 1.12478601250000 3.20914569687500 
 S -2.62696496875000 4.65216601250000 2.90823269687500 
 S -3.21976896875000 1.75405001250000 7.14345269687500 
 S -3.75549596875000 5.75675001250000 6.81784569687500 
