16

 C -3.28708011875000 1.37046556562500 5.23187818125000 
 C -3.19737411875000 5.05846956562500 5.37788418125000 
 C -4.50905411875000 0.869772565625002 4.69231318125000 
 C -4.42838211875000 4.96431756562500 4.64571418125000 
 N -2.28255411875000 1.55483356562500 4.38034118125000 
 N -2.09630411875000 5.16046856562500 4.63964018125000 
 N -4.43297911875000 0.774720565625002 3.35477418125000 
 N -4.27328211875000 5.25931056562500 3.30793318125000 
 N -5.00179011875000 1.23143256562500 7.23285918125000 
 N -4.91545511875000 4.73182456562500 7.19376818125000 
 S -5.84608511875000 0.621843565625002 5.86955418125000 
 S -5.68591311875000 4.95392456562500 5.81799618125000 
 S -2.89044311875000 1.19324056562500 2.91807518125000 
 S -2.60782911875000 5.36878456562500 3.08850718125000 
 S -3.37657711875000 1.56916856562500 6.99790318125000 
 S -3.30947411875000 5.03763556562500 7.12025418125000 
