16

 C -3.21046477500000 1.15747286562500 5.20400091875000 
 C -3.12490477500000 5.07529186562500 5.64673891875000 
 C -4.48533077500000 0.884937865625004 4.64648991875000 
 C -4.39354377500000 4.67902886562500 5.05716091875000 
 N -2.15921277500000 1.09699886562500 4.37213691875000 
 N -2.16201177500000 5.28296586562500 4.67959991875000 
 N -4.42662777500000 0.623837865625003 3.34073891875000 
 N -4.48185077500000 4.57815086562500 3.72997591875000 
 N -4.83024677500000 1.63162786562500 7.20217391875000 
 N -4.87770077500000 4.89707686562500 7.54934191875000 
 S -5.69187977500000 0.936537865625002 5.95775791875000 
 S -5.68674377500000 4.46037086562500 6.17355291875000 
 S -2.84336377500000 0.883285865625004 2.92390191875000 
 S -3.02245677500000 4.97402386562500 3.20701591875000 
 S -3.17704477500000 1.71248386562500 6.81110891875000 
 S -3.31669377500000 5.22253986562500 7.40581191875000 
