16

 C -2.82340564687500 1.31251328750000 5.78360788750000 
 C -3.08211864687500 4.79650628750000 5.46056788750000 
 C -4.06562464687500 0.748543287500000 5.18160188750000 
 C -4.35848364687500 4.45366028750000 4.88031988750000 
 N -1.84489364687500 1.39634428750000 4.90769588750000 
 N -2.05593364687500 4.90979828750000 4.63166888750000 
 N -3.81867664687500 0.275653287500000 3.93638288750000 
 N -4.26847064687500 4.19925128750000 3.57672388750000 
 N -4.59681564687500 1.55532128750000 7.56840188750000 
 N -4.83082364687500 5.02281928750000 7.41849588750000 
 S -5.44476664687500 0.862579287500000 6.28294088750000 
 S -5.69965464687500 4.66293528750000 6.01715688750000 
 S -2.30395764687500 0.793414287500001 3.45439988750000 
 S -2.68801964687500 4.47657528750000 3.14515588750000 
 S -2.99151964687500 1.92807128750000 7.38209588750000 
 S -3.19206364687500 5.29894028750000 7.06936688750000 
