16

 C -3.31183151250000 1.15474242500000 5.49158721875000 
 C -3.23149751250000 5.34005742500000 5.75982421875000 
 C -4.51042951250000 0.685041425000000 4.85118221875000 
 C -4.36455651250000 4.79530742500000 5.09405221875000 
 N -2.36926651250000 1.54540442500000 4.65445021875000 
 N -2.23637951250000 5.78040542500000 5.00576921875000 
 N -4.43053651250000 0.687958425000000 3.55309021875000 
 N -4.19130451250000 4.74696142500000 3.75879921875000 
 N -5.05407551250000 0.801269424999999 7.38097721875000 
 N -4.84234851250000 4.60853942500000 7.62639021875000 
 S -5.90498351250000 0.423934425000000 5.93244321875000 
 S -5.62153751250000 4.38531042500000 6.24291121875000 
 S -2.84977551250000 1.17169942500000 3.15913821875000 
 S -2.74513251250000 5.46698842500000 3.43189521875000 
 S -3.45739051250000 1.21697442500000 7.19813321875000 
 S -3.34791251250000 5.28470542500000 7.54116921875000 
