16

 C -3.17261863437500 1.28702949375000 5.17649108437500 
 C -3.33503063437500 5.04909849375000 5.42998808437500 
 C -4.48333863437500 0.942875493749996 4.69372008437500 
 C -4.59264963437500 4.65002449375000 4.89374908437500 
 N -2.19904863437500 1.20812049375000 4.28561508437500 
 N -2.29801363437500 5.20075549375000 4.61323508437500 
 N -4.50055763437500 0.561768493749996 3.44725608437500 
 N -4.49423963437500 4.49476349375000 3.56402208437500 
 N -4.94722963437500 1.21093449375000 7.22214108437500 
 N -4.81575363437500 4.85601649375000 7.40487208437500 
 S -5.76749563437500 0.801642493749997 5.74757208437500 
 S -5.75593663437500 4.54069849375000 6.19784108437500 
 S -2.98788163437500 0.772107493749996 2.81769408437500 
 S -2.91942963437500 4.84498249375000 3.11206508437500 
 S -3.31155063437500 1.53404049375000 6.94809308437500 
 S -3.25891763437500 5.25316449375000 7.05122408437500 
