16

 C -3.31971514687500 1.33239739687500 5.54022767187500 
 C -3.16282714687500 5.06379639687500 5.47239467187500 
 C -4.55802414687500 0.944758396874999 4.98830867187500 
 C -4.39210914687500 4.76715239687500 4.79019767187500 
 N -2.32109814687500 1.43985639687500 4.68479367187500 
 N -2.16607014687500 5.22533839687500 4.62930267187500 
 N -4.51721114687500 0.865492396874999 3.67100867187500 
 N -4.30539114687500 4.56656939687500 3.47231867187500 
 N -4.89300814687500 0.924621396874999 7.50709867187500 
 N -4.89045414687500 4.65015939687500 7.31294567187500 
 S -5.84172114687500 0.829460396874999 6.13423067187500 
 S -5.76884314687500 4.52606339687500 5.88736967187500 
 S -2.91924514687500 1.10462439687500 3.19961767187500 
 S -2.74768314687500 4.98615839687500 3.11451467187500 
 S -3.35167914687500 1.46000539687500 7.20657867187500 
 S -3.25015014687500 5.16296339687500 7.17187167187500 
