16

 C -3.14143393437500 1.53533177500000 5.51686878437500 
 C -3.03954393437500 5.03753077500000 5.53866278437500 
 C -4.45250793437500 1.56230177500000 4.93427778437500 
 C -4.32730593437500 4.81650577500000 4.90911878437500 
 N -2.20322993437500 1.65224077500000 4.57259178437500 
 N -2.04400893437500 5.28582677500000 4.69204978437500 
 N -4.49085893437500 1.62137977500000 3.61793278437500 
 N -4.31932693437500 4.87275577500000 3.58758978437500 
 N -4.86090193437500 1.54354777500000 7.50221578437500 
 N -4.70307793437500 4.50438877500000 7.37763578437500 
 S -5.72351393437500 1.44324277500000 6.08779778437500 
 S -5.52695193437500 4.34888077500000 5.96048278437500 
 S -2.84200993437500 1.65395577500000 3.04994478437500 
 S -2.73827293437500 5.23952877500000 3.17140678437500 
 S -3.18876693437500 1.68235877500000 7.26713478437500 
 S -3.14915293437500 4.96414877500000 7.30172678437500 
