16

 C -3.19994407500000 1.31088093125000 5.68447681250000 
 C -3.52158807500000 5.34131193125000 5.36950881250000 
 C -4.27312107500000 0.612772931250001 5.04322481250000 
 C -4.51406707500000 4.43222193125000 4.82439081250000 
 N -2.23521907500000 1.61119493125000 4.83756381250000 
 N -2.39693607500000 5.57286993125000 4.62155981250000 
 N -4.19990707500000 0.479921931250001 3.70175081250000 
 N -4.25944407500000 4.15613993125000 3.52626781250000 
 N -4.83263207500000 0.820326931250000 7.50674781250000 
 N -5.29156907500000 4.99151393125000 7.26746981250000 
 S -5.59336207500000 0.317536931250001 6.12952481250000 
 S -5.80659607500000 4.14108093125000 5.88196881250000 
 S -2.63830407500000 1.12360193125000 3.36575681250000 
 S -2.79980007500000 4.88869993125000 3.13632481250000 
 S -3.34539707500000 1.66480393125000 7.39946581250000 
 S -3.81116807500000 5.73397993125000 7.04060081250000 
