16

 C -3.20900797187500 1.18601225000000 5.54209202187500 
 C -3.13731497187500 5.50978425000000 5.71461502187500 
 C -4.41825397187500 0.730906249999999 4.91716202187500 
 C -4.22399197187500 4.85656725000000 5.02891002187500 
 N -2.21607997187500 1.33168325000000 4.62332802187500 
 N -2.14928897187500 5.94612725000000 4.90700102187500 
 N -4.37988897187500 0.588267249999999 3.60008602187500 
 N -4.10377697187500 4.87359025000000 3.69086902187500 
 N -4.97788397187500 0.846350250000000 7.43569502187500 
 N -4.82821997187500 4.69100625000000 7.44608502187500 
 S -5.77920497187500 0.482350250000000 5.98863502187500 
 S -5.57265997187500 4.35022125000000 6.03699602187500 
 S -2.84710997187500 1.15997025000000 3.13389002187500 
 S -2.68960997187500 5.56921125000000 3.35118002187500 
 S -3.38741197187500 1.23104425000000 7.26891802187500 
 S -3.32286097187500 5.41238225000000 7.39574702187500 
