16

 C -2.85465336875000 1.87692494062500 5.39933480937500 
 C -3.10599236875000 5.22434694062500 5.48400280937500 
 C -4.10282136875000 1.48808594062500 4.78223480937500 
 C -4.33695936875000 4.82999494062500 4.76479580937500 
 N -1.80725336875000 1.79127094062500 4.59626480937500 
 N -2.00001736875000 5.24360194062500 4.77061080937500 
 N -4.03832136875000 1.27037694062500 3.46364280937500 
 N -4.12640736875000 4.58976194062500 3.44786680937500 
 N -4.61576636875000 1.72419794062500 7.27617680937500 
 N -4.92064936875000 4.90434594062500 7.30879580937500 
 S -5.42353436875000 1.38983794062500 5.88136780937500 
 S -5.72101036875000 4.62539294062500 5.84558380937500 
 S -2.48263836875000 1.47215294062500 3.05816380937500 
 S -2.48897536875000 4.85605994062500 3.21080380937500 
 S -3.02702236875000 2.16393094062500 7.12168780937500 
 S -3.31423836875000 5.28358094062500 7.19967980937500 
