16

 C -3.13928270312501 1.52747540000000 5.29057104687500 
 C -3.23113070312501 5.35962040000000 5.78140104687500 
 C -4.27736770312501 0.829823399999998 4.73754504687500 
 C -4.38124170312501 4.76775040000000 5.10247904687500 
 N -2.07075770312501 1.68833040000000 4.50572404687500 
 N -2.17175070312501 5.56274040000000 4.99663804687500 
 N -4.05724870312500 0.351930399999998 3.51166004687500 
 N -4.21681570312501 4.53052940000000 3.78682204687500 
 N -4.85161370312500 1.42188840000000 7.16739104687500 
 N -5.08634370312501 5.12558040000000 7.59633504687500 
 S -5.64842770312501 0.809663399999998 5.86880104687500 
 S -5.71669970312501 4.61606740000000 6.12901004687500 
 S -2.47556570312501 0.922498399999998 3.06160204687500 
 S -2.66094470312501 5.00450640000000 3.50583104687500 
 S -3.28571370312501 1.94439140000000 6.96384404687500 
 S -3.50211070312501 5.56420940000000 7.49975204687500 
