16

 C -3.27264529062500 1.41267694687500 5.55601697812500 
 C -2.96562829062500 5.23056394687500 5.42977697812500 
 C -4.43267229062500 0.713520946875001 5.06300197812500 
 C -4.22878529062500 4.92315394687500 4.83533097812500 
 N -2.25826029062500 1.57372394687500 4.68871297812500 
 N -1.94753629062500 5.38960694687500 4.64886497812500 
 N -4.32263629062500 0.446031946875001 3.76007897812500 
 N -4.12224429062500 4.87139194687500 3.50181297812500 
 N -5.02452429062500 1.27118194687500 7.37783097812500 
 N -4.67937829062500 5.13023694687500 7.38007897812500 
 S -5.63261529062500 0.365934946875002 6.15806497812500 
 S -5.49865129062500 4.66660294687500 6.00365397812500 
 S -2.87213729062500 1.03948394687500 3.21665597812500 
 S -2.54066929062500 5.14060494687500 3.05365397812500 
 S -3.54239229062500 1.84897994687500 7.21811297812500 
 S -3.02641029062500 5.39924394687500 7.13365697812500 
