16

 C -3.19470589062500 1.42433735312500 5.33469426250000 
 C -2.93678089062500 5.29395535312500 5.70368426250000 
 C -4.34932389062500 0.871870353125002 4.69899426250000 
 C -4.26465889062500 5.08329035312500 5.16655726250000 
 N -2.17199189062500 1.65975135312500 4.60104826250000 
 N -2.00944889062500 5.32428835312500 4.76208126250000 
 N -4.21355689062500 0.814339353125001 3.40515426250000 
 N -4.27844089062500 4.90827835312500 3.83043626250000 
 N -4.90563089062500 0.769472353125001 7.25598226250000 
 N -4.51404889062500 4.90456835312500 7.59363026250000 
 S -5.58012089062500 0.249520353125001 5.80087726250000 
 S -5.52186489062500 4.83035435312500 6.29465326250000 
 S -2.67597389062500 1.44246535312500 3.01491026250000 
 S -2.77764889062500 5.11157035312500 3.25326326250000 
 S -3.40871989062500 1.59119935312500 7.05015026250000 
 S -2.98826189062500 5.47522735312500 7.48228526250000 
