16

 C -2.98482837187500 1.49937621562500 5.62769224687500 
 C -3.02638637187500 5.30755721562499 5.36843524687500 
 C -4.26037637187500 0.999986215624995 5.10354124687500 
 C -4.22086037187500 4.87474021562499 4.76898224687500 
 N -2.10043337187500 1.68118021562499 4.61382124687500 
 N -1.97748437187500 5.53914221562500 4.55183824687500 
 N -4.33239637187500 0.792514215624996 3.79234424687500 
 N -4.13299537187500 4.72999221562499 3.43129324687500 
 N -4.67478237187500 1.21401221562500 7.58823824687500 
 N -4.54372837187500 4.83783521562500 7.40358424687500 
 S -5.53933137187500 0.863746215624994 6.26969624687500 
 S -5.44514037187500 4.63997121562499 5.99527024687500 
 S -2.85043137187500 1.16456521562499 3.22279124687500 
 S -2.53684237187500 5.23470321562499 3.10248924687500 
 S -3.05199537187500 1.61630921562499 7.45035724687500 
 S -3.01185637187500 5.43452221562499 7.07808024687500 
