16

 C -3.22538879375000 1.43265179062500 5.51528318750000 
 C -3.19434579375000 4.97565979062500 5.19229618750000 
 C -4.46553079375000 1.04981079062500 4.95482418750000 
 C -4.22538679375000 4.14219079062500 4.67270118750000 
 N -2.20047079375000 1.51335879062500 4.65037118750000 
 N -2.24346179375000 5.18066079062500 4.30102718750000 
 N -4.46536579375000 0.743266790624999 3.66536218750000 
 N -4.15674679375000 3.87822879062500 3.37220818750000 
 N -4.98086279375000 1.44673479062500 7.45349718750000 
 N -4.99989479375000 4.89133779062500 7.08666018750000 
 S -5.77728979375000 0.892162790624999 6.13186218750000 
 S -5.63673979375000 4.07152979062500 5.72744818750000 
 S -2.92712679375000 1.08035079062500 3.18010018750000 
 S -2.76837679375000 4.60702679062500 2.81277018750000 
 S -3.38521979375000 1.77367879062500 7.24136418750000 
 S -3.53112279375000 5.59103379062500 6.79408118750000 
