16

 C -2.95546327187500 1.40894499375000 5.32584024062500 
 C -3.28860527187500 4.95272399375000 5.55110024062500 
 C -4.21925327187500 0.867305993750001 4.75312224062500 
 C -4.40995827187500 4.33153099375000 4.87436124062500 
 N -2.00854527187500 1.64671799375000 4.41165324062500 
 N -2.31612127187500 5.27044399375000 4.70604124062500 
 N -4.23645927187500 0.792653993750001 3.42469124062500 
 N -4.38684827187500 4.40510699375000 3.54342624062500 
 N -4.69442827187500 1.02457499375000 7.33168924062500 
 N -5.01886527187500 4.51601299375000 7.40648424062500 
 S -5.53552127187500 0.738916993750001 5.94293324062500 
 S -5.77457327187500 4.07334199375000 6.02780124062500 
 S -2.76458027187500 1.34432099375000 2.91144724062500 
 S -2.89381827187500 5.08251999375000 3.13939724062500 
 S -3.17443227187500 1.72016699375000 7.10131424062500 
 S -3.42555727187500 5.01781499375000 7.25381424062500 
