16

 C -3.31407578125000 1.09031847500000 5.46619782187500 
 C -3.32968478125000 5.20945847500000 5.22287382187500 
 C -4.49758378125000 0.757551475000001 4.73567682187500 
 C -4.32801478125000 4.44389747500000 4.53336882187500 
 N -2.25283878125000 1.23952947500000 4.69713382187500 
 N -2.38445278125000 5.72628247500000 4.50417682187500 
 N -4.33979878125000 0.705226475000001 3.44040982187500 
 N -4.08696678125000 4.40115847500000 3.21484482187500 
 N -5.17535178125000 0.819992475000000 7.18188082187500 
 N -5.02376478125000 4.59531747500000 7.01431582187500 
 S -5.80257878125000 0.338365475000001 5.73835582187500 
 S -5.57611978125000 3.83109147500000 5.64727582187500 
 S -2.74054478125000 0.956629475000001 3.13802782187500 
 S -2.71315078125000 5.31970847500000 2.89208282187500 
 S -3.56621978125000 1.21132647500000 7.20078882187500 
 S -3.50450478125000 5.32172647500000 6.93558582187500 
