16

 C -2.96654052812500 1.02444390000000 5.82903930312500 
 C -3.19618052812500 4.96607190000000 5.58067230312500 
 C -4.21327752812500 0.643379900000000 5.20957230312500 
 C -4.34594652812500 4.45560690000000 4.90736330312500 
 N -1.95767852812500 1.13769090000000 4.96861730312500 
 N -2.28414352812500 5.43555490000000 4.74239530312500 
 N -4.12333252812500 0.476634900000000 3.89967330312500 
 N -4.25535152812500 4.36370290000000 3.56564130312500 
 N -4.91388252812500 1.00860090000000 7.60182830312500 
 N -5.00643452812500 4.66310290000000 7.40382430312500 
 S -5.60419652812500 0.531534900000000 6.19088530312500 
 S -5.59792952812500 3.98717090000000 6.02845430312500 
 S -2.58282652812500 0.915101900000000 3.41650830312500 
 S -2.77735852812500 5.04227290000000 3.19156330312500 
 S -3.28739852812500 1.26118390000000 7.53433030312500 
 S -3.48588452812500 5.30288790000000 7.28008930312500 
