16

 C -3.07383236875000 1.33694051250000 5.67306245937500 
 C -3.40686336875000 5.39668251250000 5.33529245937500 
 C -4.17903336875000 0.644349512500002 5.03518945937500 
 C -4.31405236875000 4.36757851250000 4.84893645937500 
 N -2.03694936875000 1.51652651250000 4.82199745937500 
 N -2.39922436875000 5.63097151250000 4.52920745937500 
 N -4.02038736875000 0.346388512500003 3.76525445937500 
 N -4.10176036875000 3.96190951250000 3.61618145937500 
 N -4.94734836875000 1.00582751250000 7.50901345937500 
 N -5.11056836875000 5.04770551250000 7.23985045937500 
 S -5.51005236875000 0.286284512500003 6.15935545937500 
 S -5.69665336875000 4.13034651250000 5.93557045937500 
 S -2.50827736875000 1.03984151250000 3.33921945937500 
 S -2.66601336875000 4.69884751250000 3.14212345937500 
 S -3.39481536875000 1.58601351250000 7.31471445937500 
 S -3.66296836875000 5.86236951250000 7.02204345937500 
