16

 C -2.93375630312500 1.56177892812500 5.31762357812500 
 C -3.22390030312500 4.87925592812500 5.62301557812500 
 C -4.16145830312500 0.963286928124998 4.76377757812500 
 C -4.43811730312500 4.52328092812500 4.92518957812500 
 N -1.98928730312500 1.80786792812500 4.41047057812500 
 N -2.30741030312500 5.33301892812500 4.75585957812500 
 N -4.10396430312500 0.835230928124998 3.41411857812500 
 N -4.40272630312500 4.46210792812500 3.59074857812500 
 N -4.38283730312500 1.01752992812500 7.28006657812500 
 N -5.02791230312500 4.50390492812500 7.41493657812500 
 S -5.31162230312500 0.649983928124998 5.96384057812500 
 S -5.73632130312500 4.03801092812500 5.96260557812500 
 S -2.59673230312500 1.34675792812500 2.97030257812500 
 S -2.90039830312500 5.06780992812500 3.25369457812500 
 S -2.91679330312500 1.73997392812500 6.99861057812500 
 S -3.41824830312500 4.95614592812500 7.30134157812500 
