16

 C -3.30589853125000 0.882741218750000 5.47492445000000 
 C -3.25279353125000 5.20378021875000 5.45401745000000 
 C -4.53184453125000 0.631246218749999 4.74743045000000 
 C -4.39610153125000 4.64741821875000 4.78292845000000 
 N -2.27362053125000 1.13271621875000 4.71236945000000 
 N -2.21848753125000 5.43660421875000 4.67203745000000 
 N -4.31869853125000 0.648320218749999 3.44920045000000 
 N -4.28036053125000 4.57792121875000 3.45859745000000 
 N -5.12733453125000 0.752568218750000 7.22529945000000 
 N -5.07166953125000 4.55276021875000 7.20839545000000 
 S -5.91985653125000 0.559067218750000 5.79381945000000 
 S -5.68273953125000 3.99119321875000 5.76096145000000 
 S -2.74196753125000 0.913227218749999 3.12627245000000 
 S -2.82178153125000 5.12824421875000 3.06089245000000 
 S -3.51048453125000 0.936640218750000 7.15556245000000 
 S -3.59272953125000 5.39260121875000 7.18551245000000 
