16

 C -3.37219205312500 1.46311826250000 5.49695048750000 
 C -3.28814705312500 4.98587126250000 5.15813948750000 
 C -4.57611705312500 0.945166262500000 4.92447848750000 
 C -4.42231305312500 4.31171926250000 4.56212448750000 
 N -2.36738205312500 1.58719326250000 4.64079048750000 
 N -2.31441505312500 5.30240926250000 4.32714348750000 
 N -4.49929405312500 0.743114262500000 3.61639648750000 
 N -4.22954105312500 3.98522826250000 3.29012748750000 
 N -5.05269205312500 1.42577526250000 7.51841848750000 
 N -5.03978205312500 4.81153626250000 7.00557248750000 
 S -5.83249005312500 0.867787262500001 6.15301048750000 
 S -5.65735505312500 3.98120026250000 5.74534748750000 
 S -2.87600005312500 1.05967826250000 3.15689048750000 
 S -2.77568905312500 4.68669226250000 2.83532448750000 
 S -3.40458005312500 1.70748626250000 7.22689348750000 
 S -3.55614905312500 5.52007426250000 6.82633048750000 
