16

 C -3.64013455312500 1.09056157500000 5.54654274062500 
 C -2.99071855312500 4.96411757500000 5.40288674062500 
 C -4.79907855312500 0.595979574999999 4.86713074062500 
 C -4.21786455312500 4.45022857500000 4.85029474062500 
 N -2.59609155312500 1.48221757500000 4.80113874062500 
 N -1.99067555312500 5.23086557500000 4.56620474062500 
 N -4.55951355312500 0.385269574999999 3.57036174062500 
 N -4.05429755312500 4.17623257500000 3.57699574062500 
 N -5.34263155312500 0.551825574999999 7.46766474062500 
 N -4.66198855312500 4.82693757500000 7.33670074062500 
 S -6.07829955312500 0.232720574999998 6.04615774062500 
 S -5.55028755312500 4.38558057500000 6.02279574062500 
 S -2.96965355312500 0.918146574999999 3.29090674062500 
 S -2.47247355312500 4.64174357500000 3.12247574062500 
 S -3.80960855312500 1.15921657500000 7.32513674062500 
 S -3.12445755312500 5.37831157500000 7.07265974062500 
