16

 C -3.25208101875000 1.50851141250000 5.59892033750000 
 C -3.44660701875000 5.34621241250000 5.60717933750000 
 C -4.47533501875000 1.04483241250000 5.05805533750000 
 C -4.53533901875000 4.59252741250000 5.02164233750000 
 N -2.25015201875000 1.77857441250000 4.71342633750000 
 N -2.48969601875000 5.71834841250000 4.75694333750000 
 N -4.41724201875000 0.949920412500000 3.73699733750000 
 N -4.41287901875000 4.52096541250000 3.70207033750000 
 N -4.94470201875000 1.11015241250000 7.59981533750000 
 N -5.19862301875000 4.74355841250000 7.51302333750000 
 S -5.78370801875000 0.775244412500000 6.20005133750000 
 S -5.89346101875000 4.28578141250000 6.06800833750000 
 S -2.98521001875000 1.48923441250000 3.17121133750000 
 S -2.97619901875000 5.16088441250000 3.27561933750000 
 S -3.36502201875000 1.51426841250000 7.35391233750000 
 S -3.67308101875000 5.41877941250000 7.34091033750000 
