16

 C -3.28861304687500 1.10119629687500 5.91921706250000 
 C -2.92432604687500 4.80479929687500 5.29599706250000 
 C -4.42885604687500 0.725439296875000 5.18812406250000 
 C -4.19772604687500 4.48232629687500 4.66196506250000 
 N -2.24545904687500 1.48079829687500 5.23105206250000 
 N -1.94269704687500 4.84403529687500 4.39489706250000 
 N -4.22996204687500 0.678546296875000 3.88520406250000 
 N -4.19258804687500 4.45439329687500 3.32699806250000 
 N -5.05428704687500 0.521627296875000 7.75327106250000 
 N -4.73589504687500 4.60357429687500 7.18544306250000 
 S -5.87246404687500 0.352589296875000 6.25724106250000 
 S -5.60545504687500 4.54857929687500 5.76368106250000 
 S -2.69303304687500 1.28681629687500 3.63964306250000 
 S -2.63157004687500 4.75518329687500 2.87279506250000 
 S -3.57703804687500 1.31456029687500 7.69046106250000 
 S -3.08489504687500 4.90169029687500 7.07076206250000 
