16

 C -2.89538396250000 1.48802802500000 5.30927291562500 
 C -3.11884596250000 5.06165002500000 5.45924391562500 
 C -4.18590196250000 1.14673302500000 4.70378991562500 
 C -4.30657296250000 4.59309902500000 4.79549391562500 
 N -1.90940896250000 1.59591102500000 4.40315191562500 
 N -2.10552596250000 5.31160802500000 4.61761091562500 
 N -4.08245896250000 0.899347025000003 3.40668091562500 
 N -4.16115296250000 4.37450402500000 3.48733991562500 
 N -4.72475996250000 1.19078402500000 7.23876591562500 
 N -4.88621296250000 4.70952902500000 7.34109291562500 
 S -5.51224296250000 1.02170002500000 5.79877191562500 
 S -5.55309496250000 4.16725702500000 5.89748291562500 
 S -2.53555596250000 1.33414002500000 2.89262291562500 
 S -2.61237296250000 4.90718102500000 3.09824591562500 
 S -3.13700896250000 1.62266302500000 7.08303091562500 
 S -3.28101596250000 5.28085702500000 7.25402091562500 
