16

 C -2.93567347187500 1.63471399687500 5.77463769375000 
 C -3.14335147187500 5.30291899687500 5.69952669375000 
 C -4.15633847187500 1.37946099687500 5.13891669375000 
 C -4.37587647187500 4.89389199687500 5.08166669375000 
 N -1.96406547187500 1.85971899687500 4.92064869375000 
 N -2.18170347187500 5.40861799687500 4.82372669375000 
 N -4.16791947187500 1.55391799687500 3.82551969375000 
 N -4.36075147187500 4.76268399687500 3.75394469375000 
 N -4.67581247187500 1.63069499687500 7.60775869375000 
 N -4.82741647187500 5.25860899687500 7.64692869375000 
 S -5.48445947187500 1.47935599687500 6.20297569375000 
 S -5.64728847187500 4.82336299687500 6.24280269375000 
 S -2.59064147187500 1.83527699687500 3.40715269375000 
 S -2.82462047187500 5.06018599687500 3.30126769375000 
 S -3.02246147187500 1.79127199687500 7.46977069375000 
 S -3.16647447187500 5.54976399687500 7.43676669375000 
