16

 C -3.20121195000000 0.926369487499997 5.71436323750000 
 C -3.27246995000000 5.18714048750000 5.65555023750000 
 C -4.41336595000000 0.722573487499998 4.97784223750000 
 C -4.39558395000000 4.54392048750000 4.96867123750000 
 N -2.16469895000000 1.12528348750000 4.93799123750000 
 N -2.32772295000000 5.57365648750000 4.81377223750000 
 N -4.27534295000000 0.659909487499998 3.66292023750000 
 N -4.19023595000000 4.36787948750000 3.66492623750000 
 N -4.93006295000000 0.846371487499998 7.51967123750000 
 N -5.04473295000000 4.74118348750000 7.37592523750000 
 S -5.76112395000000 0.591466487499998 6.05935923750000 
 S -5.59909095000000 3.88998248750000 6.05909523750000 
 S -2.62080295000000 0.936995487499998 3.38647323750000 
 S -2.76664295000000 5.10992048750000 3.28053423750000 
 S -3.26089895000000 1.15707748750000 7.41285123750000 
 S -3.45915795000000 5.28952648750000 7.36535023750000 
