16

 C -3.25690119687500 1.05003838125000 5.55180525312500 
 C -3.23470119687500 5.11470638125000 5.72253325312500 
 C -4.47586119687500 0.760467381250003 4.80710625312500 
 C -4.36839019687500 4.52719838125000 5.07782825312500 
 N -2.23158119687500 1.21288638125000 4.71027025312500 
 N -2.24233519687500 5.37754738125000 4.88908925312500 
 N -4.42764019687500 0.783255381250003 3.47051225312500 
 N -4.25600319687500 4.30578438125000 3.78792925312500 
 N -5.04228119687500 0.542214381250003 7.26180925312500 
 N -4.87044519687500 4.46802438125000 7.59314225312500 
 S -5.83902919687500 0.461816381250002 5.81976225312500 
 S -5.72803219687500 4.18740538125000 6.15638625312500 
 S -2.83164419687500 1.01744138125000 3.18493625312500 
 S -2.77421519687500 4.94031738125000 3.38045825312500 
 S -3.37592519687500 0.913084381250003 7.30348825312500 
 S -3.41055619687500 5.29368138125000 7.46559125312500 
