16

 C -3.18290765625000 1.26203893437501 5.40125586562500 
 C -3.17036965625000 5.36471793437501 5.63177686562500 
 C -4.31286665625000 0.609578934375008 4.86267786562500 
 C -4.32485065625000 4.68434393437501 4.97871686562500 
 N -2.09706265625000 1.19367793437501 4.62336186562500 
 N -2.19484265625000 5.59845093437501 4.80218386562500 
 N -4.10441765625000 7.350493437500738E-002 3.68348686562500 
 N -4.11467965625000 4.38512993437501 3.71944186562500 
 N -5.02632865625000 1.27178493437501 7.16827686562500 
 N -4.93597065625000 5.15019593437501 7.46969486562500 
 S -5.72292765625000 0.570132934375008 5.83802486562500 
 S -5.71369165625000 4.74312793437501 6.08036186562500 
 S -2.60019665625000 0.419264934375008 3.19789686562500 
 S -2.62618865625000 4.91460093437501 3.31166386562500 
 S -3.53003865625000 1.91701593437501 7.01167386562500 
 S -3.35260665625000 5.69283193437501 7.32567186562500 
