16

 C -2.86489774375000 1.24508174062500 5.53468861250000 
 C -2.90467274375000 5.13390874062500 5.65371961250000 
 C -4.10544574375000 0.872730740625001 4.88811061250000 
 C -4.08352074375000 4.58193074062500 5.01747461250000 
 N -1.87085474375000 1.45478474062500 4.67087361250000 
 N -1.96649074375000 5.47490974062500 4.78394961250000 
 N -3.98303074375000 0.668218740625002 3.57525261250000 
 N -3.94343374375000 4.31612974062500 3.71565361250000 
 N -4.80190174375000 1.01236074062500 7.32847561250000 
 N -4.69182074375000 4.63408274062500 7.48501961250000 
 S -5.52148374375000 0.705737740625001 5.88130961250000 
 S -5.46502574375000 4.34471074062500 6.03612861250000 
 S -2.33324974375000 0.863356740625002 3.17034661250000 
 S -2.47742874375000 4.86122774062500 3.30097561250000 
 S -3.17580074375000 1.31582874062500 7.28860061250000 
 S -3.21495574375000 5.38310974062500 7.37159161250000 
