16

 C -3.25703877187500 1.04378988437500 5.53641657500000 
 C -3.26937577187500 5.12779088437500 5.71107657500000 
 C -4.50218277187500 0.740108884375000 4.79057957500000 
 C -4.39825377187500 4.49379488437500 5.10055457500000 
 N -2.22343577187500 1.19816888437500 4.71431957500000 
 N -2.25518977187500 5.33531288437500 4.89035957500000 
 N -4.41914277187500 0.764038884375000 3.44961457500000 
 N -4.26954077187500 4.33148488437500 3.78778257500000 
 N -5.04875277187500 0.564352884374999 7.25606257500000 
 N -4.90219077187500 4.50364388437500 7.61795657500000 
 S -5.84265977187500 0.435999884374999 5.81356457500000 
 S -5.70103977187500 4.19882788437500 6.15702857500000 
 S -2.83328777187500 1.06428088437500 3.18841257500000 
 S -2.77488777187500 4.91199588437500 3.38293857500000 
 S -3.37774777187500 0.893159884374999 7.27624557500000 
 S -3.38377277187500 5.27035488437500 7.47363657500000 
