16

 C -3.05161352500000 1.27043670937500 5.52141840000000 
 C -3.23405752500000 5.05497670937500 5.46295440000000 
 C -4.34021052500000 1.05617270937500 4.84586340000000 
 C -4.46792952500000 4.65711070937500 4.85180540000000 
 N -2.00477352500000 1.27047470937500 4.69646440000000 
 N -2.18832152500000 4.98012370937500 4.66915740000000 
 N -4.29741052500000 0.890254709375004 3.50659040000000 
 N -4.37965652500000 4.39261870937500 3.55069340000000 
 N -4.96111152500000 1.42358370937500 7.35114240000000 
 N -5.03729652500000 5.13497870937500 7.31863340000000 
 S -5.71671152500000 1.50975470937500 5.89682140000000 
 S -5.82045052500000 4.49160170937500 6.01919940000000 
 S -2.64811652500000 0.989952709375004 3.19104040000000 
 S -2.70714852500000 4.56282370937500 3.21918040000000 
 S -3.29127552500000 1.46384470937500 7.30566040000000 
 S -3.41900452500000 5.55229870937500 7.12147840000000 
