16

 C -3.25385692500000 0.962313493749995 5.41959849062500 
 C -3.15054792500000 4.75541849375000 5.60530849062500 
 C -4.55715892500000 0.755380493749995 4.78564049062500 
 C -4.43304192500000 4.52742549375000 4.96212049062500 
 N -2.23690992500000 1.10563849374999 4.60059949062500 
 N -2.14840392500000 4.94761349375000 4.71956849062500 
 N -4.51306692500000 0.791423493749995 3.46487649062500 
 N -4.47838792500000 4.50787849374999 3.63169549062500 
 N -4.91631992500000 0.508308493749995 7.30087349062500 
 N -4.94625592500000 4.69690049374999 7.50031849062500 
 S -5.76459892500000 0.263865493749995 5.92471949062500 
 S -5.75435892500000 4.55213849375000 6.08151849062500 
 S -2.90800492500000 1.04151949374999 3.07891049062500 
 S -2.89078792500000 4.76368049375000 3.22819949062500 
 S -3.29267992500000 0.832739493749995 7.15663649062500 
 S -3.33207892500000 4.68746149375000 7.36083249062500 
