16

 C -3.12442671875000 1.52075995000000 5.66666961875000 
 C -3.00928271875000 4.59989595000000 5.44495261875000 
 C -4.36869171875000 1.08228395000000 5.05677361875000 
 C -4.20170871875000 4.13539895000000 4.83982761875000 
 N -2.06381171875000 1.57532495000000 4.85710361875000 
 N -2.04661471875000 4.81509695000000 4.54851461875000 
 N -4.28247571875000 0.829941949999997 3.72831861875000 
 N -4.13743771875000 3.84491795000000 3.54220561875000 
 N -4.86454471875000 1.35890495000000 7.67631061875000 
 N -4.85510871875000 4.49007995000000 7.30228561875000 
 S -5.67105071875000 1.06644995000000 6.27652361875000 
 S -5.59025471875000 4.11522595000000 5.86370161875000 
 S -2.67046871875000 1.15717695000000 3.39788861875000 
 S -2.59208771875000 4.28357995000000 3.10915061875000 
 S -3.23307971875000 1.68264095000000 7.42173961875000 
 S -3.24115671875000 4.66666595000000 7.17979061875000 
