16

 C -3.35982879687500 1.55905217500000 5.44535611250000 
 C -3.10819179687500 5.46191517500000 5.64107711250000 
 C -4.46589779687500 0.952358174999999 4.72883611250000 
 C -4.26593279687500 4.88206317500000 4.98696411250000 
 N -2.28551579687500 1.67545017500000 4.71943211250000 
 N -2.14668279687500 5.70907817500000 4.77069611250000 
 N -4.28032579687500 0.719787174999999 3.45235311250000 
 N -4.31864379687500 4.89746517500000 3.67085711250000 
 N -5.29411879687500 1.33782817500000 7.21329511250000 
 N -4.75350379687500 5.11065717500000 7.50219611250000 
 S -5.86479679687500 0.732463174999999 5.76125911250000 
 S -5.54484379687500 4.63844817500000 6.12957411250000 
 S -2.73603479687500 1.24448817500000 3.17408411250000 
 S -2.71807179687500 5.42207117500000 3.25004211250000 
 S -3.74359679687500 1.96287417500000 7.16114611250000 
 S -3.21817279687500 5.57675317500000 7.39098811250000 
