16

 C -3.10018598125000 1.55190518125000 5.64275475000000 
 C -3.20668298125000 4.89703718125000 5.46984975000000 
 C -4.39111998125000 1.31642818125000 5.06328975000000 
 C -4.45664598125000 4.68886418125000 4.77876775000000 
 N -2.11478998125000 1.60471618125000 4.75713575000000 
 N -2.13969198125000 4.94548018125000 4.65115675000000 
 N -4.43520598125000 1.16493018125000 3.74196575000000 
 N -4.32716098125000 4.65260018125000 3.44359875000000 
 N -4.79065898125000 1.64797918125000 7.59291975000000 
 N -5.00962398125000 4.84798118125000 7.32849575000000 
 S -5.68197798125000 1.24067018125000 6.20947775000000 
 S -5.82223998125000 4.57142418125000 5.89616175000000 
 S -2.94421098125000 1.42816218125000 3.27882175000000 
 S -2.76172598125000 4.86176518125000 3.10089775000000 
 S -3.14860898125000 1.80765418125000 7.35333775000000 
 S -3.37702298125000 5.06105918125000 7.21046975000000 
