16

 C -3.04616217812500 1.35894834687500 5.62664823750000 
 C -3.03196617812500 5.04008234687500 5.38039023750000 
 C -4.29492717812500 0.948660346875002 4.99582623750000 
 C -4.18313117812500 4.27196634687500 4.90049923750000 
 N -1.97610117812500 1.32396734687500 4.83916223750000 
 N -1.99037917812500 4.99362934687500 4.56862623750000 
 N -4.15300117812500 0.672978346875002 3.69734223750000 
 N -4.04052517812500 3.89634934687500 3.64356823750000 
 N -4.75966917812500 1.18472434687500 7.59454223750000 
 N -4.72175017812500 5.08255334687500 7.31992723750000 
 S -5.60908417812500 0.825817346875001 6.16137623750000 
 S -5.42855417812500 4.26326134687500 6.07508623750000 
 S -2.58402917812500 0.967037346875002 3.30817823750000 
 S -2.49671517812500 4.32136034687500 3.17669923750000 
 S -3.14092517812500 1.55175434687500 7.41647923750000 
 S -3.10869517812500 5.41529534687500 7.09874823750000 
