16

 C -3.10575503750000 1.46251127500000 5.36470100937500 
 C -3.40916303750000 5.26318727500000 5.26422200937500 
 C -4.26567803750000 0.788700275000002 4.88170400937500 
 C -4.42102603750000 4.43546227500000 4.64479300937500 
 N -2.15225103750000 1.72515727500000 4.46489100937500 
 N -2.45806403750000 5.66800227500000 4.43866700937500 
 N -4.22907203750000 0.367296275000001 3.62938200937500 
 N -4.19415303750000 4.08617227500000 3.37112200937500 
 N -4.77631803750000 1.30094927500000 7.42438900937500 
 N -5.16165503750000 4.92857727500000 7.03541000937500 
 S -5.54697703750000 0.574773275000002 6.15346700937500 
 S -5.70461503750000 4.10702727500000 5.70096700937500 
 S -2.81972203750000 0.995271275000001 3.05358600937500 
 S -2.74068103750000 4.92859527500000 2.98394200937500 
 S -3.23194303750000 1.81566127500000 7.19983400937500 
 S -3.66602503750000 5.61310227500000 6.92264900937500 
