16

 C -3.28353853125000 1.56304921875000 5.49562942500000 
 C -3.10470053125000 5.19240021875000 5.68964142500000 
 C -4.54438153125000 1.11630121875000 4.92053442500000 
 C -4.30013053125000 4.65895021875000 5.11327242500000 
 N -2.35518653125000 1.81060121875000 4.54669042500000 
 N -2.03751353125000 5.29001121875000 4.83125342500000 
 N -4.58627253125000 1.09204521875000 3.60104842500000 
 N -4.23095153125000 4.68417821875000 3.75676342500000 
 N -4.83775053125000 1.11664421875000 7.48015242500000 
 N -4.90293753125000 5.10682121875000 7.53083942500000 
 S -5.73295553125000 0.998641218749999 6.16627942500000 
 S -5.58028153125000 4.39967621875000 6.13519042500000 
 S -3.06757053125000 1.38781121875000 3.06449342500000 
 S -2.68220253125000 5.03432421875000 3.35143842500000 
 S -3.24129053125000 1.70298121875000 7.29255242500000 
 S -3.24184653125000 5.44925621875000 7.41650742500000 
