16

 C -3.19841843125000 0.939432112500000 5.62921402187500 
 C -3.29355343125000 4.89133811250000 5.29726102187500 
 C -4.40689943125000 0.703707112500000 4.88719302187500 
 C -4.41945143125000 4.27960211250000 4.64033602187500 
 N -2.10697043125000 1.07695111250000 4.86425102187500 
 N -2.18639143125000 5.01698611250000 4.56477902187500 
 N -4.28921843125000 0.848728112500000 3.57789602187500 
 N -4.27011343125000 4.22721511250000 3.31162702187500 
 N -4.91632143125000 0.691268112500000 7.36036802187500 
 N -4.99689443125000 4.66942011250000 7.14150302187500 
 S -5.75348743125000 0.443339112500000 5.91113302187500 
 S -5.73167243125000 4.12397211250000 5.77916802187500 
 S -2.62561243125000 0.927133112500000 3.28270102187500 
 S -2.70245243125000 4.70775911250000 2.99083302187500 
 S -3.25725943125000 0.881937112500000 7.36858002187500 
 S -3.48153843125000 5.37394511250000 6.91053002187500 
