16

 C -3.11944685625000 1.41709941875000 5.56752578437500 
 C -3.20524885625000 5.05417441875000 5.17461378437500 
 C -4.40442685625000 0.899300418750002 4.99278378437500 
 C -4.32059185625000 4.27022341875000 4.66511978437500 
 N -2.15100485625000 1.46769541875000 4.66987578437500 
 N -2.17534485625000 5.12473541875000 4.32979178437500 
 N -4.34066385625000 0.737476418750002 3.67280078437500 
 N -4.18396985625000 3.89505441875000 3.39086378437500 
 N -4.78410985625000 1.28782441875000 7.47835678437500 
 N -4.88902485625000 5.01889441875000 7.03209778437500 
 S -5.68014685625000 0.870263418750001 6.12640378437500 
 S -5.65311885625000 4.21134641875000 5.76553778437500 
 S -2.78721585625000 0.991923418750002 3.22322378437500 
 S -2.65188085625000 4.39394841875000 2.95712078437500 
 S -3.23346585625000 1.85566541875000 7.24374678437500 
 S -3.34830385625000 5.54199441875000 6.81049178437500 
