16

 C -3.03606008750000 1.28879340000000 5.63500948437500 
 C -3.08251608750000 5.13944640000000 5.44054948437500 
 C -4.19659208750000 0.830345400000003 4.94916548437500 
 C -4.18154508750000 4.36427040000000 4.86126948437500 
 N -1.93182908750000 1.38985840000000 4.90146048437500 
 N -2.15717708750000 5.35475540000000 4.55824448437500 
 N -3.96948608750000 0.526839400000003 3.68392648437500 
 N -3.92894208750000 3.79630840000000 3.69537048437500 
 N -4.79821008750000 0.938637400000003 7.50514148437500 
 N -4.85438108750000 5.18016940000000 7.27375948437500 
 S -5.56139808750000 0.595582400000003 6.09421548437500 
 S -5.43168408750000 4.13639540000000 6.10895148437500 
 S -2.41930708750000 1.00842540000000 3.31952748437500 
 S -2.50084108750000 4.47876440000000 3.18459848437500 
 S -3.27300108750000 1.58916140000000 7.33394448437500 
 S -3.35676208750000 5.88202040000000 6.97128348437500 
