16

 C -2.91033854062500 1.31563516562500 5.74953610312500 
 C -3.10452154062500 4.88267716562500 5.47369510312500 
 C -4.05990954062500 0.767101165625001 5.19184910312500 
 C -4.39108354062500 4.59987816562500 4.87714210312500 
 N -1.86046654062500 1.37046016562500 4.95432710312500 
 N -2.11260954062500 5.00218716562500 4.60576310312500 
 N -3.92848854062500 0.378382165625001 3.93613110312500 
 N -4.32507554062500 4.25423416562500 3.58488410312500 
 N -4.62572054062500 1.54300816562500 7.58599110312500 
 N -4.76121754062500 5.00214516562500 7.38796410312500 
 S -5.40929154062500 0.861823165625001 6.25806210312500 
 S -5.71505354062500 4.62549216562500 6.01707410312500 
 S -2.35228554062500 0.734640165625001 3.55783110312500 
 S -2.71966354062500 4.46218816562500 3.19314410312500 
 S -2.95293854062500 1.92940216562500 7.34797210312500 
 S -3.15250054062500 5.27644116562500 7.16550410312500 
