16

 C -3.04555986875000 1.06740116562500 5.69484055312500 
 C -3.13467986875000 4.81721516562500 5.51847155312500 
 C -4.30471086875000 0.645116165625002 5.05821955312500 
 C -4.40455686875000 4.42063816562500 4.98066255312500 
 N -2.18551586875000 1.55025316562500 4.86098255312500 
 N -2.18474386875000 4.88543116562500 4.58000455312500 
 N -4.26097986875000 0.700765165625002 3.76439055312500 
 N -4.55192186875000 4.50711916562500 3.65414355312500 
 N -4.71967086875000 0.660409165625002 7.62466755312500 
 N -4.70243786875000 4.66692716562500 7.54748255312500 
 S -5.50314586875000 0.286361165625002 6.23358355312500 
 S -5.60936886875000 4.26991116562500 6.20921555312500 
 S -2.76854686875000 1.37360516562500 3.33704755312500 
 S -2.99996386875000 4.71761416562500 3.13622155312500 
 S -3.09106386875000 1.03622916562500 7.37217555312500 
 S -3.11137886875000 4.90790816562500 7.25047255312500 
