16

 C -3.06640328437500 1.49045009062500 5.52790925312500 
 C -3.12168628437500 5.02607709062500 5.19344225312500 
 C -4.26802628437500 0.902681090625001 5.02473325312500 
 C -4.36791028437500 4.54462709062500 4.63704625312500 
 N -2.02110228437500 1.47027309062500 4.69294425312500 
 N -2.05958728437500 5.01294409062500 4.40417925312500 
 N -4.09826428437500 0.518979090625001 3.75679925312500 
 N -4.19773628437500 4.03429009062500 3.42292125312500 
 N -4.70792328437500 1.30549609062500 7.59742825312500 
 N -4.89676128437500 5.14134909062500 7.09939225312500 
 S -5.56997428437500 0.786978090625001 6.22164225312500 
 S -5.64173428437500 4.35760209062500 5.86500625312500 
 S -2.55714128437500 0.870988090625001 3.25481925312500 
 S -2.59124328437500 4.25644009062500 3.02911725312500 
 S -3.13744828437500 1.81688309062500 7.23625225312500 
 S -3.30448528437500 5.39654409062500 6.91765625312500 
