16

 C -3.14854294062500 1.59360975937500 5.66460656250000 
 C -2.90666294062500 5.14155875937500 5.42901056250000 
 C -4.39230494062500 1.19901075937500 5.05160956250000 
 C -4.21020894062500 4.81121175937500 4.78963856250000 
 N -2.10892294062500 1.75524775937500 4.77906156250000 
 N -1.90567394062500 5.35983475937500 4.61498356250000 
 N -4.39470694062500 1.13674175937500 3.71822956250000 
 N -4.09558894062500 4.77611275937500 3.47676056250000 
 N -5.01578194062500 1.44775675937500 7.49101956250000 
 N -4.63113994062500 5.12885975937500 7.38566856250000 
 S -5.74618394062500 1.01437075937500 6.08329156250000 
 S -5.54644994062500 4.60727375937500 6.00324956250000 
 S -2.83536694062500 1.40327375937500 3.28908556250000 
 S -2.47687294062500 5.09218675937500 3.12243556250000 
 S -3.44177094062500 1.86897475937500 7.41920756250000 
 S -3.00196094062500 5.28603575937500 7.15574056250000 
