16

 C -3.16533897187500 1.23050825625000 5.67609536875000 
 C -3.08333297187500 5.26209525625000 5.51491736875000 
 C -4.39315697187500 1.12558925625000 5.00360136875000 
 C -4.24851997187500 4.75535225625000 4.84427836875000 
 N -2.14500897187500 1.48014525625000 4.88216636875000 
 N -2.05424597187500 5.37847725625000 4.67691436875000 
 N -4.36631297187500 1.31735625625000 3.69401636875000 
 N -4.19792697187500 4.73194725625000 3.49173736875000 
 N -4.99895197187500 0.957480256250001 7.43188136875000 
 N -4.89839897187500 4.97237825625000 7.27858836875000 
 S -5.83739597187500 1.01121025625000 5.97597936875000 
 S -5.61986597187500 4.61809625625000 5.84442236875000 
 S -2.78421097187500 1.51969925625000 3.31670236875000 
 S -2.61373497187500 5.15097225625000 3.13928136875000 
 S -3.39601797187500 1.34277825625000 7.40481336875000 
 S -3.33322197187500 5.58412725625000 7.28390736875000 
