16

 C -3.09983518437500 1.62230334687500 5.44664554062500 
 C -2.93646818437500 5.01559134687500 5.39045454062500 
 C -4.37218718437500 1.12925234687500 4.95584354062500 
 C -4.23185418437500 4.67462234687499 4.85971454062500 
 N -2.05552618437500 1.63001134687500 4.61507854062500 
 N -1.88036518437500 4.86807734687499 4.53945054062500 
 N -4.30374218437500 0.834446346874995 3.65128954062500 
 N -4.21319718437500 4.37570434687500 3.54535754062500 
 N -4.82796518437500 1.43159534687500 7.37502954062500 
 N -4.71014618437500 5.13751034687500 7.33772854062500 
 S -5.66752718437500 0.820325346874995 6.02270954062500 
 S -5.53971218437500 4.92773734687500 5.88365354062500 
 S -2.76945418437500 1.21918034687500 3.17752254062500 
 S -2.59427618437500 4.46100834687500 3.09632654062500 
 S -3.26623318437500 1.80802634687500 7.18936754062500 
 S -3.04861518437500 5.28300934687500 7.09552254062500 
