16

 C -2.95023203750000 1.66440400312500 5.40237054062500 
 C -3.02373003750000 5.19696700312500 5.66195954062500 
 C -4.22173603750000 1.25637000312500 4.82785354062500 
 C -4.18926903750000 4.62581700312500 5.01549754062500 
 N -1.92892403750000 1.64011700312500 4.55640454062500 
 N -1.96476603750000 5.44913800312500 4.89689054062500 
 N -4.19833603750000 1.04692700312500 3.49422354062500 
 N -4.04286703750000 4.51713700312500 3.69701554062500 
 N -4.51690903750000 1.23135500312500 7.42095754062500 
 N -4.86308103750000 4.83423700312500 7.48257254062500 
 S -5.44033103750000 1.13768600312500 6.04327754062500 
 S -5.58057103750000 4.40562300312500 6.01947554062500 
 S -2.63288603750000 1.31416800312500 3.06843054062500 
 S -2.47886803750000 5.07819900312500 3.35277954062500 
 S -2.84330503750000 1.62272900312500 7.14096354062500 
 S -3.29958603750000 5.35327900312500 7.35476054062500 
