16

 C -3.21299618750000 1.50989449375000 5.40483485312500 
 C -3.35731518750000 5.36211449375000 5.46593585312500 
 C -4.43662218750000 0.827295493749998 4.85474285312500 
 C -4.53687518750000 4.82612949375000 4.84103085312500 
 N -2.32988318750000 1.75120549375000 4.43700885312500 
 N -2.37909518750000 5.66556649375000 4.62166685312500 
 N -4.43060018750000 0.541262493749998 3.57123285312500 
 N -4.43195018750000 4.69765249375000 3.50794985312500 
 N -4.88300718750000 1.17749649375000 7.33323985312500 
 N -5.02620318750000 4.77422149375000 7.35992485312500 
 S -5.61148218750000 0.474692493749997 6.02935385312500 
 S -5.76807618750000 4.21735049375000 5.94613385312500 
 S -2.94558618750000 1.15364649375000 3.04662685312500 
 S -2.89758918750000 5.31555149375000 3.06805185312500 
 S -3.39366818750000 1.85019549375000 7.09985885312500 
 S -3.51419918750000 5.44588449375000 7.18570085312500 
