16

 C -3.08250528125000 1.57093318750000 5.70688740312500 
 C -3.12206128125000 4.87677218750000 5.61874740312500 
 C -4.23278928125000 1.19596018750000 4.92540640312500 
 C -4.28808128125000 4.42500118750000 4.88517240312500 
 N -1.93205528125000 1.61205318750000 5.09611440312500 
 N -1.98746128125000 4.92165118750000 4.86689440312500 
 N -3.93888428125000 0.950303187500001 3.62618640312500 
 N -4.06847828125000 4.07380618750000 3.63019940312500 
 N -4.97388928125000 1.17961418750000 7.47430440312500 
 N -5.19113228125000 4.66917618750000 7.15599940312500 
 S -5.71882828125000 1.11129418750000 5.92719840312500 
 S -5.82443028125000 4.38805818750000 5.61168440312500 
 S -2.25152028125000 1.34272018750000 3.48115840312500 
 S -2.44937928125000 4.35990718750000 3.34562740312500 
 S -3.27955028125000 1.59730218750000 7.36831640312500 
 S -3.63443128125000 4.99481918750000 7.32206940312500 
