16

 C -3.13418581875000 1.44708330000000 5.71810048750000 
 C -3.07242981875000 4.59674830000000 5.42541148750000 
 C -4.38104081875000 1.01902630000000 5.10834848750000 
 C -4.28029981875000 4.04800230000000 4.79189148750000 
 N -2.09486981875000 1.51011330000000 4.89735348750000 
 N -2.02652681875000 4.81749430000000 4.61077748750000 
 N -4.27533881875000 0.836721299999997 3.80044048750000 
 N -4.12221381875000 3.81749630000000 3.49477948750000 
 N -4.84466481875000 1.27831130000000 7.66371748750000 
 N -4.80361381875000 4.53264730000000 7.22124448750000 
 S -5.68978181875000 0.971727299999997 6.27640248750000 
 S -5.63341481875000 4.06762330000000 5.84129348750000 
 S -2.71912681875000 1.08126730000000 3.34778248750000 
 S -2.55870281875000 4.27424730000000 3.12861748750000 
 S -3.25872281875000 1.65121730000000 7.41407848750000 
 S -3.16657481875000 4.77689730000000 7.13799548750000 
