16

 C -3.04048863750000 1.24782830312500 5.30665816250000 
 C -2.91389663750000 5.08517130312500 5.60148216250000 
 C -4.12819963750000 0.730911303124998 4.62262516250000 
 C -4.14366963750000 4.55865230312500 5.12865916250000 
 N -2.10492663750000 1.66242330312500 4.45956116250000 
 N -2.03669163750000 5.32118030312500 4.64349816250000 
 N -4.08699763750000 0.761987303124998 3.30498916250000 
 N -4.14757163750000 4.28679430312500 3.81704416250000 
 N -4.68373063750000 0.641192303124997 7.12632116250000 
 N -4.44614463750000 5.05953530312500 7.66259216250000 
 S -5.41856663750000 0.234306303124998 5.68318916250000 
 S -5.39978063750000 4.51370930312500 6.35834416250000 
 S -2.64269263750000 1.49822030312500 2.90847216250000 
 S -2.72146663750000 4.82442830312500 3.22753616250000 
 S -3.15061463750000 1.23204630312500 7.02659816250000 
 S -2.81730263750000 5.35439330312500 7.32643716250000 
