16

 C -3.36286532500000 1.52747246562500 5.49216836562500 
 C -3.05775932500000 5.31014146562500 5.63880436562500 
 C -4.47769832500000 0.991063465625002 4.76534236562500 
 C -4.33547432500000 5.03348346562500 5.03561036562500 
 N -2.30995832500000 1.72560846562500 4.71330836562500 
 N -2.06731032500000 5.45808946562500 4.76659536562500 
 N -4.32421632500000 0.837013465625002 3.49164336562500 
 N -4.28013432500000 4.90143146562500 3.74769436562500 
 N -5.35584632500000 1.48574846562500 7.08066136562500 
 N -4.87399232500000 5.08027246562500 7.59239936562500 
 S -5.91047232500000 0.728353465625002 5.73659336562500 
 S -5.68286932500000 4.64083146562500 6.16368036562500 
 S -2.76548632500000 1.47037946562500 3.14439836562500 
 S -2.79186832500000 5.20137046562500 3.24386336562500 
 S -3.80229832500000 2.03792846562500 7.04706036562500 
 S -3.22910632500000 5.45683846562500 7.37728536562500 
