16

 C -3.36256107500000 1.28718870937500 5.38289297187500 
 C -3.27596607500000 5.05719470937500 5.81218697187500 
 C -4.62022207500000 0.889394709374998 4.69235697187500 
 C -4.54593807500000 4.80257870937500 5.17916897187500 
 N -2.33643007500000 1.62112370937500 4.59284097187500 
 N -2.23505107500000 5.22449670937500 4.97192797187500 
 N -4.49120907500000 0.959036709374998 3.41142097187500 
 N -4.47631407500000 4.66684470937500 3.85138997187500 
 N -5.25008407500000 0.910977709374998 7.17720197187500 
 N -5.08973407500000 4.90070670937500 7.73691197187500 
 S -5.98757307500000 0.466170709374998 5.70780597187500 
 S -5.83698307500000 4.39453770937500 6.32111397187500 
 S -2.90101607500000 1.44687270937500 3.06718497187500 
 S -2.84776707500000 5.00513870937500 3.45078397187500 
 S -3.71286307500000 1.46933370937500 7.10643697187500 
 S -3.43495607500000 5.19604770937500 7.51265797187500 
