16

 C -3.14744754687500 1.68141131250000 5.41109744375000 
 C -3.06151154687500 5.07672731250000 5.59158544375000 
 C -4.38844754687500 1.27533931250000 4.81126844375000 
 C -4.24157654687500 4.50777931250000 4.92861344375000 
 N -2.14795254687500 1.85346931250000 4.55027644375000 
 N -2.03907854687500 5.16072731250000 4.75118644375000 
 N -4.35419154687500 1.28564131250000 3.48526144375000 
 N -4.17879454687500 4.38735931250000 3.58591044375000 
 N -4.97313554687500 1.19758731250000 7.30672144375000 
 N -4.88204554687500 4.67214331250000 7.46546344375000 
 S -5.74139154687500 0.929631312500001 5.83020744375000 
 S -5.62710954687500 4.45925031250000 6.00963444375000 
 S -2.76037554687500 1.56937631250000 3.06050944375000 
 S -2.59088854687500 4.72765131250000 3.22728544375000 
 S -3.37329554687500 1.69418931250000 7.12533644375000 
 S -3.35353754687500 5.31966431250000 7.34037344375000 
