16

 C -3.42428886875000 1.58694693750000 5.41338023750000 
 C -3.18825186875000 5.21445193750000 5.64052523750000 
 C -4.50354286875000 1.00813293750000 4.64507223750000 
 C -4.45314586875000 4.88717493750000 5.02593623750000 
 N -2.38778086875000 2.00481493750000 4.68978823750000 
 N -2.16658086875000 5.26665593750000 4.82586623750000 
 N -4.31905286875000 1.00827693750000 3.35278523750000 
 N -4.41789886875000 4.81466593750000 3.73253123750000 
 N -5.38943986875000 1.50218593750000 7.09629823750000 
 N -4.87960886875000 5.05100893750000 7.50526223750000 
 S -5.99371886875000 0.732811937499998 5.69897123750000 
 S -5.72917686875000 4.70636093750000 6.16619623750000 
 S -2.78661886875000 1.51162793750000 3.11345523750000 
 S -2.75872586875000 4.99598793750000 3.32809423750000 
 S -3.79508486875000 2.01169193750000 7.05944223750000 
 S -3.25253386875000 5.32248993750000 7.39813623750000 
