16

 C -3.00273155312500 1.39891139062500 5.30559299375000 
 C -3.26112355312500 5.18270339062500 5.65745999375000 
 C -4.29082355312500 1.01090139062500 4.77108599375000 
 C -4.46728055312500 4.72356539062500 4.96200399375000 
 N -2.05622055312500 1.44457639062500 4.36077099375000 
 N -2.18104355312500 5.40411839062500 4.88491999375000 
 N -4.28931555312500 0.624168390625000 3.52350799375000 
 N -4.26855455312500 4.55179639062500 3.64584599375000 
 N -4.85303455312500 1.47994939062500 7.27040799375000 
 N -4.74518855312500 4.82384939062500 7.58899699375000 
 S -5.60672255312500 1.08824239062500 5.80367199375000 
 S -5.78651255312500 4.62471039062500 6.26666099375000 
 S -2.78207855312500 0.715401390625001 3.01908599375000 
 S -2.68262955312500 4.96886739062500 3.35953499375000 
 S -3.14284155312500 1.70197739062500 7.09289099375000 
 S -3.19228455312500 5.27418239062500 7.41283299375000 
