16

 C -3.29996058437500 1.14608391250000 5.49670405000000 
 C -3.22303458437500 5.33752691250000 5.75954305000000 
 C -4.50736258437500 0.683026912500000 4.85203605000000 
 C -4.36718058437500 4.80540891250000 5.08459805000000 
 N -2.37365758437500 1.54320491250000 4.65318005000000 
 N -2.24511158437500 5.79055991250000 5.00592605000000 
 N -4.43614558437500 0.683194912500000 3.55003105000000 
 N -4.19199858437500 4.74247791250000 3.75367205000000 
 N -5.04766258437500 0.796190912500000 7.38141705000000 
 N -4.84189758437500 4.60832791250000 7.62349205000000 
 S -5.90065058437500 0.427907912500000 5.92945805000000 
 S -5.61595858437500 4.38612291250000 6.23824105000000 
 S -2.85216858437500 1.17059691250000 3.16516305000000 
 S -2.73953758437500 5.47200991250000 3.43028505000000 
 S -3.45353058437500 1.21900291250000 7.20145505000000 
 S -3.34541258437500 5.28685591250000 7.54231605000000 
