16

 C -3.28930059062500 1.51169901875000 5.49052837500000 
 C -3.08665859062500 5.19728101875000 5.87109137500000 
 C -4.50001759062500 1.15581401875000 4.78874737500000 
 C -4.39422659062500 4.96405201875000 5.27278637500000 
 N -2.23455559062500 1.70131301875000 4.68888737500000 
 N -2.08026059062500 5.25348401875000 5.01543137500000 
 N -4.41635259062500 1.08010301875000 3.43521737500000 
 N -4.40754159062500 4.81564501875000 3.95600337500000 
 N -5.04056959062500 1.03702801875000 7.36738737500000 
 N -4.79737459062500 5.08252501875000 7.83852237500000 
 S -5.81404859062500 0.715191018750001 5.88335337500000 
 S -5.67204059062500 5.02091601875000 6.47865937500000 
 S -2.81776259062500 1.50749301875000 3.10455337500000 
 S -2.77768059062500 5.05889601875000 3.54872637500000 
 S -3.46036459062500 1.57383701875000 7.21557237500000 
 S -3.16546159062500 5.37999201875000 7.60885237500000 
