16

 C -3.22320216874999 1.52309134062500 5.39771058125000 
 C -3.37019216875000 5.33635134062500 5.45944058125000 
 C -4.39912816874999 0.816152340624996 4.81839658125000 
 C -4.47838116875000 4.69045534062500 4.83718658125000 
 N -2.32371916874999 1.83702734062500 4.47316458125000 
 N -2.41092616875000 5.78707434062500 4.65742358125000 
 N -4.35812016874999 0.665843340624996 3.51135858125000 
 N -4.37435016875000 4.63905734062500 3.48770458125000 
 N -4.93295316874999 1.16030234062500 7.31288558125000 
 N -4.99212516875000 4.87112534062500 7.40673758125000 
 S -5.66133216875000 0.449576340624996 5.94391858125000 
 S -5.75846116874999 4.36292134062500 6.02933358125000 
 S -2.95748016874999 1.25360534062500 3.00615158125000 
 S -2.90080216874999 5.30388434062500 3.15181458125000 
 S -3.34483016875000 1.70251634062500 7.08459258125000 
 S -3.44009016874999 5.39124234062500 7.18408658125000 
