16

 C -2.95662464062500 1.25777323125000 5.36405457187500 
 C -2.82983064062500 5.15707823125000 5.68879057187500 
 C -4.15115664062500 0.754927231250001 4.59891157187500 
 C -4.12146864062500 4.69358623125000 5.17661857187500 
 N -1.85942764062500 1.43548723125000 4.62603257187500 
 N -1.92621364062500 5.23789223125000 4.70762357187500 
 N -3.94789364062500 0.535860231250001 3.29625257187500 
 N -4.21962764062500 4.46480423125000 3.84965357187500 
 N -4.72825064062500 0.809922231250001 7.16085057187500 
 N -4.42890464062500 4.79115823125000 7.70542757187500 
 S -5.43931764062500 0.345393231250001 5.73365557187500 
 S -5.30678364062500 4.32360723125000 6.37893657187500 
 S -2.34648964062500 1.01735223125000 3.11366457187500 
 S -2.65959664062500 4.81152723125000 3.26420157187500 
 S -3.20590064062500 1.47650923125000 7.04302257187500 
 S -2.85759064062500 5.33378423125000 7.45371157187500 
