16

 C -3.03176500312500 1.26690067500000 5.56291670312500 
 C -2.93129400312500 5.15697567500000 5.61362270312500 
 C -4.19215300312500 0.816308674999998 4.85010770312500 
 C -4.09452200312500 4.49395667500000 5.03711370312500 
 N -1.92696300312500 1.35264567500000 4.80535670312500 
 N -1.91810800312500 5.39630667500000 4.79419970312500 
 N -4.00520000312500 0.490817674999999 3.55532970312500 
 N -3.97873400312500 4.32906667500000 3.73109470312500 
 N -4.83100400312500 0.982052674999998 7.29662670312500 
 N -4.69444400312500 4.65702567500000 7.46201470312500 
 S -5.55450400312500 0.637760674999999 5.81157870312500 
 S -5.45844000312500 4.33772167500000 6.02856170312500 
 S -2.46225200312500 0.831138674999998 3.32270770312500 
 S -2.46221200312500 4.89195367500000 3.30659270312500 
 S -3.21361800312500 1.28955067500000 7.27122170312500 
 S -3.17264300312500 5.36165067500000 7.33483370312500 
