16

 C -3.16901472187500 1.03949200312500 5.44967583125000 
 C -3.08455772187500 4.64041300312500 5.51063983125000 
 C -4.38466872187500 0.585428003124999 4.78531883125000 
 C -4.40925072187500 4.73737500312500 4.92911883125000 
 N -2.18168872187500 1.38540700312500 4.61096783125000 
 N -2.09340972187500 4.44936100312500 4.61214883125000 
 N -4.26915772187500 0.501428003125000 3.46307283125000 
 N -4.44228372187500 4.67877000312500 3.57462183125000 
 N -4.83173772187500 0.559235003124999 7.30756983125000 
 N -4.89304772187500 4.90269600312500 7.46021783125000 
 S -5.65954772187500 0.198061003124999 5.92214983125000 
 S -5.74662372187500 4.78769100312500 6.02753383125000 
 S -2.79561372187500 1.15036000312500 3.07778583125000 
 S -2.88818172187500 4.42895300312500 3.11477083125000 
 S -3.20605772187500 0.943524003124999 7.13180883125000 
 S -3.17237072187500 4.85650600312500 7.32343883125000 
