16

 C -3.28928064062500 1.07376991562500 5.53673665625000 
 C -3.19194564062500 5.35341191562500 5.79154865625000 
 C -4.49656864062500 0.667128915625000 4.85079165625000 
 C -4.33027864062500 4.86721391562500 5.04146665625000 
 N -2.30230164062500 1.49090091562500 4.70658265625000 
 N -2.29343264062500 5.90856191562500 4.95065265625000 
 N -4.44356464062500 0.612901915625000 3.51234165625000 
 N -4.20465564062500 4.74261191562500 3.70172565625000 
 N -5.01112564062500 0.744368915625000 7.33906165625000 
 N -4.81907164062500 4.62169991562500 7.62463465625000 
 S -5.79088864062500 0.486144915624999 5.91307565625000 
 S -5.57987464062500 4.38344091562500 6.12278165625000 
 S -2.92389364062500 1.15829591562500 3.19311165625000 
 S -2.67744264062500 5.52574091562500 3.41017765625000 
 S -3.40455164062500 1.24210791562500 7.26544865625000 
 S -3.30465464062500 5.32679591562500 7.52542565625000 
