16

 C -3.29832817187500 1.41256466562500 5.48729002500000 
 C -3.05984117187500 5.35884266562500 5.77975702500000 
 C -4.43460417187500 0.844444665624999 4.73694302500000 
 C -4.28329617187500 5.06863966562500 5.05020702500000 
 N -2.23709117187500 1.62577766562500 4.72374602500000 
 N -2.00107717187500 5.49054166562500 4.94598402500000 
 N -4.23990917187500 0.787434665624999 3.43013902500000 
 N -4.16790217187500 4.98564966562500 3.72756302500000 
 N -5.16801917187500 1.09230266562500 7.20553902500000 
 N -5.05645217187500 5.19825066562500 7.49494902500000 
 S -5.68413217187500 0.424875665624999 5.75794202500000 
 S -5.77928217187500 5.05669666562500 6.00700302500000 
 S -2.71552817187500 1.38449666562500 3.14947602500000 
 S -2.54745117187500 5.24750966562500 3.37851902500000 
 S -3.52631817187500 1.47440866562500 7.19696802500000 
 S -3.38856817187500 5.57106566562500 7.50387902500000 
