16

 C -3.04114697812500 1.32041097500000 5.73495070937500 
 C -3.18112197812500 5.03315497500000 5.43182770937500 
 C -4.13451597812500 0.596787975000001 5.12014270937500 
 C -4.37199597812500 4.51708197500000 4.84575670937500 
 N -2.02310797812500 1.44148497500000 4.88598670937500 
 N -2.14641197812500 5.14294497500000 4.59463370937500 
 N -3.95156097812500 0.257922975000001 3.86643170937500 
 N -4.25585297812500 4.22185697500000 3.55819870937500 
 N -4.79813597812500 0.846669975000001 7.53408770937500 
 N -4.94146197812500 4.95520797500000 7.32263970937500 
 S -5.47681897812500 0.317348975000001 6.13707770937500 
 S -5.67793897812500 4.27374497500000 5.97277570937500 
 S -2.43414097812500 0.808743975000001 3.39503970937500 
 S -2.68289297812500 4.56069097500000 3.13181070937500 
 S -3.25944297812500 1.53314197500000 7.46929770937500 
 S -3.23601897812500 5.15343397500000 7.22997770937500 
