16

 C -3.39149188437500 1.48311034062500 5.52111962187500 
 C -3.30616988437500 5.08377734062500 5.36303162187500 
 C -4.54730588437500 1.06584734062500 4.90984962187500 
 C -4.52032188437500 4.65958434062500 4.70820762187500 
 N -2.31404588437500 1.59432334062500 4.73137962187500 
 N -2.34283288437500 5.39457934062500 4.46994562187500 
 N -4.39676688437500 0.881060340625001 3.58240162187500 
 N -4.41813588437500 4.36612834062500 3.39230362187500 
 N -5.11366988437500 1.19298934062500 7.39479262187500 
 N -5.00079288437500 4.65158034062500 7.27751762187500 
 S -5.87660588437500 0.731322340625001 5.97565162187500 
 S -5.77536588437500 4.16690334062500 5.84245262187500 
 S -2.78482388437500 1.17919134062500 3.19021362187500 
 S -2.89906788437500 4.85987434062500 2.99506362187500 
 S -3.48906988437500 1.45855734062500 7.24883662187500 
 S -3.44790488437500 5.20263834062500 7.07612262187500 
