16

 C -3.10233772187500 1.66929136250000 5.40999618750000 
 C -2.93899172187500 5.24976436250000 5.49617318750000 
 C -4.36193472187500 1.33136236250000 4.75823618750000 
 C -4.22089172187500 4.95804336250000 4.87685118750000 
 N -2.00104172187500 1.82354536250000 4.65511718750000 
 N -1.98128972187500 5.52852536250000 4.60210718750000 
 N -4.16538372187500 1.13160736250000 3.43960618750000 
 N -4.17977972187500 4.84424236250000 3.56856118750000 
 N -4.87677872187500 1.30462736250000 7.29809318750000 
 N -4.77303572187500 4.95443636250000 7.34309218750000 
 S -5.72314972187500 1.15522236250000 5.87979818750000 
 S -5.60509672187500 4.91724636250000 5.96127718750000 
 S -2.62093972187500 1.43441536250000 3.12545718750000 
 S -2.66116672187500 5.16944636250000 3.10325618750000 
 S -3.19484072187500 1.60014636250000 7.17445718750000 
 S -3.15501872187500 5.24886736250000 7.24535018750000 
