16

 C -3.14319641875000 1.66191038437500 5.44038713125000 
 C -3.66417641875000 4.94123138437500 5.03627713125000 
 C -4.19559941875000 0.751905384375001 4.94623213125000 
 C -4.76124041875000 4.24190138437500 4.38581213125000 
 N -2.14531341875000 1.83412538437500 4.58498813125000 
 N -2.63888841875000 5.20508638437500 4.22648713125000 
 N -3.97244341875000 0.299242384375001 3.72107513125000 
 N -4.49729241875000 3.96309438437500 3.11105413125000 
 N -4.87436541875000 1.37385638437500 7.41664113125000 
 N -5.39069841875000 4.74597438437500 6.83505613125000 
 S -5.54325941875000 0.496100384375000 6.16733213125000 
 S -6.00689441875000 3.87321938437500 5.55978813125000 
 S -2.59901041875000 1.11127938437500 3.14751513125000 
 S -3.01302041875000 4.59189738437500 2.75783813125000 
 S -3.39563041875000 2.06882938437500 7.14955313125000 
 S -3.85005541875000 5.21943938437500 6.73733013125000 
