16

 C -3.30507682500000 1.39877556562500 5.47099271562500 
 C -3.11692782500000 5.40803156562500 5.76987571562500 
 C -4.41152082500000 0.813891565625001 4.73305371562500 
 C -4.29716082500000 5.02190056562500 5.04748071562500 
 N -2.23044182500000 1.64070056562500 4.71252071562500 
 N -2.04253982500000 5.50171756562500 4.98245671562500 
 N -4.26194982500000 0.732268565625001 3.42508171562500 
 N -4.16281482500000 5.03504656562500 3.71758371562500 
 N -5.20624682500000 1.13491756562500 7.17839871562500 
 N -5.04196482500000 5.22766956562500 7.43372471562500 
 S -5.70044082500000 0.403464565625002 5.78740371562500 
 S -5.76475482500000 5.06376456562500 5.97082271562500 
 S -2.73656182500000 1.31610856562500 3.10024271562500 
 S -2.54522282500000 5.26978656562500 3.38333871562500 
 S -3.52164282500000 1.47068556562500 7.20240271562500 
 S -3.41916682500000 5.55872956562500 7.54971271562500 
