16

 C -3.19803315624999 1.56380262812500 5.44315742187500 
 C -3.07719315624999 5.28157162812500 5.77212442187500 
 C -4.35131115624999 0.961704628124998 4.79815742187500 
 C -4.31817115624999 4.88469062812500 5.18282742187500 
 N -2.24103015624999 1.97906862812500 4.55913042187500 
 N -2.08819915624999 5.51020962812500 4.93642042187500 
 N -4.26808215624999 0.815265628124999 3.48210342187500 
 N -4.24297215624999 4.83482762812500 3.88523342187500 
 N -4.96409915624999 0.907457628124998 7.23815142187500 
 N -4.56544315624999 5.02002162812500 7.86258442187500 
 S -5.51493315624999 0.322175628124999 5.78303242187500 
 S -5.52274015624999 4.71985662812500 6.49552542187500 
 S -2.73175315624999 1.40143662812500 3.04106842187500 
 S -2.65734015624999 5.18957762812500 3.42361642187500 
 S -3.43358615624999 1.61502462812500 7.21856142187500 
 S -3.02407915624999 5.44782962812500 7.43054042187500 
