16

 C -3.25302925625000 1.30255643125000 5.52505895000000 
 C -3.23758225625000 5.12683543125000 5.37622895000000 
 C -4.51117225625000 1.16523743125000 4.83704395000000 
 C -4.48718925625000 4.69163743125000 4.76511095000000 
 N -2.11952825625000 1.21757543125000 4.79097495000000 
 N -2.18721725625000 4.96286043125000 4.55416895000000 
 N -4.36442125625000 0.909868431250000 3.53621795000000 
 N -4.43374025625000 4.32440243125000 3.46646895000000 
 N -5.04685425625000 1.31176943125000 7.33567195000000 
 N -5.01731125625000 4.97943243125000 7.22455595000000 
 S -5.89620025625000 1.25144743125000 5.91957395000000 
 S -5.76780025625000 4.47855743125000 5.87892195000000 
 S -2.73831725625000 0.950340431250001 3.27394295000000 
 S -2.81131125625000 4.44334843125000 3.13259995000000 
 S -3.38284725625000 1.39271243125000 7.24457195000000 
 S -3.46364025625000 5.55099043125000 7.04542395000000 
