16

 C -3.03969973750000 1.27222390625000 5.55897454375000 
 C -2.93711073750000 5.15717290625000 5.61085654375000 
 C -4.19918673750000 0.807129906250001 4.84940754375000 
 C -4.09718673750000 4.49283790625000 5.03313254375000 
 N -1.93224573750000 1.34008390625000 4.81268554375000 
 N -1.91935773750000 5.38795390625000 4.79793754375000 
 N -4.00426473750000 0.483318906250001 3.55492654375000 
 N -3.97351373750000 4.32965490625000 3.72480054375000 
 N -4.83714673750000 0.983179906250001 7.30012354375000 
 N -4.69566673750000 4.65985490625000 7.46324554375000 
 S -5.55848073750000 0.633194906250001 5.81118354375000 
 S -5.45753873750000 4.33705790625000 6.03114154375000 
 S -2.46628773750000 0.832450906250001 3.32769054375000 
 S -2.46180473750000 4.89427090625000 3.30614054375000 
 S -3.21617973750000 1.28827990625000 7.26912354375000 
 S -3.16982073750000 5.36142490625000 7.33406154375000 
