16

 C -2.96410667500000 1.33064349062500 5.66684135000000 
 C -2.96086567500000 4.99411649062500 5.45140735000000 
 C -4.20590067500000 0.986895490625002 5.08273335000000 
 C -4.14134367500000 4.36548949062500 4.90017035000000 
 N -1.94176667500000 1.38049449062500 4.80523735000000 
 N -2.00525467500000 5.16728449062500 4.53997435000000 
 N -4.15674067500000 0.657111490625002 3.77581035000000 
 N -4.03937967500000 3.86507149062500 3.66511435000000 
 N -4.77738467500000 1.10033749062500 7.54624435000000 
 N -4.71177467500000 5.12938349062500 7.22573235000000 
 S -5.56500167500000 0.814291490625002 6.10774835000000 
 S -5.44401967500000 4.19694949062500 6.05467535000000 
 S -2.56272167500000 0.989703490625002 3.34510035000000 
 S -2.50982367500000 4.31154149062500 3.17439435000000 
 S -3.19409967500000 1.54268649062500 7.33403735000000 
 S -3.10619067500000 5.53402849062500 7.11827535000000 
