16

 C -2.99539005937500 1.23863597187500 5.52312190937500 
 C -2.94318805937500 5.05010497187500 5.68768490937500 
 C -4.06604305937500 0.664140971875000 4.85347190937500 
 C -4.11775905937500 4.49461397187500 5.08584390937500 
 N -1.90808305937500 1.30985597187500 4.80660790937500 
 N -1.94872205937500 5.25929997187500 4.82733490937500 
 N -3.86620305937500 0.408390971875000 3.59464590937500 
 N -4.03020805937500 4.31354897187500 3.76221290937500 
 N -4.89151805937500 1.27023697187500 7.20981790937500 
 N -4.67105405937500 4.85274197187500 7.63313990937500 
 S -5.48746905937500 0.576888971874999 5.81443590937500 
 S -5.43818205937500 4.29975797187500 6.28127390937500 
 S -2.30122905937500 0.838778971875000 3.26065290937500 
 S -2.54897405937500 4.84008897187500 3.29804790937500 
 S -3.23376905937500 1.63166997187500 7.15352590937500 
 S -3.09596705937500 5.38842797187500 7.39684490937500 
