16

 C -3.03195523125000 1.41761874687499 5.66550322187500 
 C -2.95120923125000 5.24603874687499 5.42991822187500 
 C -4.30585323125000 1.05207274687499 5.12125722187500 
 C -4.14911023125000 4.83339174687499 4.79482422187500 
 N -2.06931323125000 1.61519874687499 4.75361822187500 
 N -1.92879323125000 5.51268374687499 4.60080622187500 
 N -4.30102823125000 0.971366746874994 3.81574222187500 
 N -4.07725023125000 4.80661074687499 3.47097622187500 
 N -4.73179323125000 1.38615174687499 7.64798922187500 
 N -4.58690623125000 4.88954474687499 7.30721422187500 
 S -5.54150023125000 0.878645746874993 6.25147522187500 
 S -5.47756023125000 4.58966274687499 5.98369022187500 
 S -2.78302923125000 1.29309574687499 3.23152422187500 
 S -2.52256823125000 5.18912874687499 3.03152422187500 
 S -3.11848823125000 1.67817274687499 7.37534022187500 
 S -3.04390123125000 5.45630274687499 7.11517922187500 
