16

 C -3.27362990625000 0.864955103125003 5.45622695312500 
 C -3.35986090625000 5.05423010312500 5.53278695312500 
 C -4.50889090625000 0.661786103125003 4.81250195312500 
 C -4.52560490625000 4.57524210312500 4.81182695312500 
 N -2.22537590625000 1.06762810312500 4.63112295312500 
 N -2.32862290625000 5.36900810312500 4.80185995312500 
 N -4.37999990625000 0.607555103125003 3.49589595312500 
 N -4.32086190625000 4.49825110312500 3.49363195312500 
 N -5.08747090625000 0.679210103125003 7.26248595312500 
 N -5.00171290625000 4.45766210312500 7.40276495312500 
 S -5.88001190625000 0.526645103125003 5.79863195312500 
 S -5.80820690625000 4.30172410312500 5.98876095312500 
 S -2.85715490625000 0.985674103125003 3.08235095312500 
 S -2.75370390625000 4.96929210312500 3.22197695312500 
 S -3.44270490625000 0.820681103125003 7.18952595312500 
 S -3.45635490625000 5.10554510312500 7.21189595312500 
