16

 C -3.18461223750000 1.42745534687500 5.56431966562500 
 C -3.26914123750000 5.27932134687500 5.47769466562500 
 C -4.32399723750000 0.892799346875004 4.82255366562500 
 C -4.33966723750000 4.67563234687500 4.72918266562500 
 N -2.16882923750001 1.65579234687500 4.70357266562500 
 N -2.17107223750001 5.51622834687500 4.76717866562500 
 N -4.17714423750000 0.625125346875002 3.55475166562500 
 N -4.02286123750000 4.43342434687500 3.45202766562500 
 N -5.04426323750000 0.836075346875003 7.25706866562500 
 N -5.14369623750000 5.05471234687500 7.17444066562500 
 S -5.66312523750000 0.420264346875003 5.77792266562500 
 S -5.67560723750000 4.18573534687500 5.85855766562500 
 S -2.71995923750000 1.21495834687500 3.15868066562500 
 S -2.46147823750001 4.94156834687500 3.23109366562500 
 S -3.49115523750001 1.44750734687500 7.32521066562500 
 S -3.59144223750000 5.58965734687500 7.10216166562500 
