16

 C -3.16857235000000 1.21146775000000 5.73450917187500 
 C -3.07739035000000 4.68150675000000 5.43356117187500 
 C -4.30702035000000 0.728453750000001 5.06051317187500 
 C -4.43663735000000 4.60431975000000 4.96874117187500 
 N -2.18398035000000 1.62767875000000 4.94263117187500 
 N -2.10563735000000 4.86733075000000 4.50024917187500 
 N -4.27429635000000 0.740207750000001 3.71615317187500 
 N -4.45069535000000 4.51919175000000 3.63838317187500 
 N -4.79368535000000 0.740436750000001 7.65440117187500 
 N -4.68559035000000 4.68508575000000 7.50974917187500 
 S -5.51338635000000 0.149011750000001 6.24710617187500 
 S -5.61089835000000 4.28113675000000 6.19153117187500 
 S -2.76068835000000 1.32411275000000 3.39922417187500 
 S -2.90618135000000 4.67543775000000 3.05837117187500 
 S -3.18052835000000 1.03619275000000 7.55865417187500 
 S -3.04569035000000 4.82918975000000 7.16746017187500 
