16

 C -3.02208071250000 1.44191019375000 5.57387763125000 
 C -3.30297171250000 5.15621519375000 5.20595363125000 
 C -4.22159971250000 1.04621619375000 4.77743263125000 
 C -4.38709871250000 4.44098419375000 4.58560263125000 
 N -1.91077771250000 1.57783219375000 4.84296263125000 
 N -2.18714571250000 5.21158919375000 4.44571563125000 
 N -3.94668671250000 0.882420193749998 3.49347863125000 
 N -4.10562271250000 3.99733219375000 3.35657063125000 
 N -5.02910671250000 1.12148719375000 7.21952263125000 
 N -5.29799471250000 5.14754519375000 6.85889563125000 
 S -5.62754971250000 0.815664193749998 5.75357063125000 
 S -5.76896071250000 4.10522619375000 5.65921563125000 
 S -2.38561171250000 1.13848719375000 3.27483963125000 
 S -2.58781971250000 4.40417719375000 3.03771963125000 
 S -3.45665271250000 1.67384019375000 7.26970363125000 
 S -3.77562071250000 5.85510919375000 6.72544363125000 
