16

 C -3.22084009687500 1.51710329687500 5.40248085937500 
 C -3.35182609687500 5.36573129687500 5.45934485937500 
 C -4.42794809687500 0.822866296875000 4.84644085937500 
 C -4.53302409687500 4.83622229687500 4.83649185937500 
 N -2.31613009687500 1.74493729687500 4.44482085937500 
 N -2.37209409687500 5.65329929687500 4.62171385937500 
 N -4.43391209687500 0.527126296875000 3.55356385937500 
 N -4.44609709687500 4.69590529687500 3.50844185937500 
 N -4.87362909687500 1.17691429687500 7.34415785937500 
 N -5.02773109687500 4.76525129687500 7.35777485937500 
 S -5.61604209687500 0.475506296875000 6.04671785937500 
 S -5.76569709687500 4.20557429687500 5.92827485937500 
 S -2.94595309687500 1.14428429687500 3.04631785937500 
 S -2.90310609687500 5.31274129687500 3.06618285937500 
 S -3.39626809687500 1.86383529687500 7.10288285937500 
 S -3.51949309687500 5.45389129687500 7.18941485937500 
