16

 C -3.15103892187500 1.41122781250000 5.77098630937500 
 C -2.95384192187500 4.97284581250000 5.53582330937500 
 C -4.48801392187500 1.07302381250000 5.30336130937500 
 C -4.24271792187500 4.80005081250000 4.88008130937500 
 N -2.22335792187500 1.29666981250000 4.81798530937500 
 N -1.91352892187500 5.00717481250000 4.72575930937500 
 N -4.61127392187500 0.676799812500004 3.99399730937500 
 N -4.12800692187500 4.68326981250000 3.57351730937500 
 N -4.75592192187500 1.73038081250000 7.78781530937500 
 N -4.73109192187500 4.66497581250000 7.37954830937500 
 S -5.70289892187500 1.14714981250000 6.56640530937500 
 S -5.50127292187500 4.34305381250000 5.99172830937500 
 S -2.97292992187500 0.654065812500004 3.45862230937500 
 S -2.46421592187500 4.76474281250000 3.19490530937500 
 S -3.11209492187500 1.72637681250000 7.49332830937500 
 S -3.07355592187500 4.90445581250000 7.26975130937500 
