16

 C -3.02626831875000 1.44990728125000 5.55795535000000 
 C -3.41302231875000 5.16574228125000 5.16489035000000 
 C -4.21142231875000 0.959130281249997 4.84153335000000 
 C -4.41085031875000 4.34790428125000 4.56446735000000 
 N -1.98108031875000 1.50016228125000 4.74586235000000 
 N -2.30700331875000 5.30294728125000 4.45492035000000 
 N -4.03619431875000 0.784985281249997 3.56064935000000 
 N -4.15751031875000 3.97568228125000 3.30530735000000 
 N -4.92662131875000 1.07160728125000 7.33885035000000 
 N -5.16711631875000 5.03448828125000 6.97453435000000 
 S -5.59902631875000 0.760315281249997 5.82352735000000 
 S -5.72477931875000 4.10562328125000 5.67551635000000 
 S -2.39541831875000 1.14549028125000 3.17045535000000 
 S -2.54844531875000 4.51295028125000 3.03793435000000 
 S -3.40040831875000 1.72258328125000 7.23480435000000 
 S -3.76789031875000 5.84047328125000 6.65326735000000 
