16

 C -3.43954996250000 1.38764168437500 5.47967246250000 
 C -3.12892196250000 4.88166268437500 5.01269546250000 
 C -4.47199996250000 0.635063684375001 4.81059646250000 
 C -4.31999596250000 4.41771768437500 4.33446146250000 
 N -2.49315696250000 1.72723868437500 4.62924646250000 
 N -2.10085596250000 5.15115868437500 4.21188546250000 
 N -4.24771396250000 0.407859684375001 3.53244846250000 
 N -4.22678896250000 4.41534868437500 2.98957046250000 
 N -5.15615196250000 0.811555684375001 7.30531946250000 
 N -4.97932196250000 4.67806868437500 6.83245546250000 
 S -5.78539496250000 0.304664684375001 5.87632646250000 
 S -5.56692296250000 3.97611368437500 5.45786846250000 
 S -2.87282596250000 1.18283768437500 3.07069846250000 
 S -2.69925396250000 4.84656768437500 2.62437846250000 
 S -3.59040596250000 1.43442668437500 7.18951546250000 
 S -3.36566196250000 5.20945368437500 6.71643646250000 
