16

 C -2.81074966250000 1.86770381875000 5.49785561875000 
 C -3.13903866250000 5.25764881875000 5.67459461875000 
 C -4.09187766250000 1.46951181875000 4.97855361875000 
 C -4.36330266250000 4.72680181875000 5.12210361875000 
 N -1.79368566250000 1.97269981875000 4.58448561875000 
 N -2.14238466250000 5.38228481875000 4.75230061875000 
 N -4.12193866250000 1.17301481875000 3.67931561875000 
 N -4.35598066250000 4.53307281875000 3.80726261875000 
 N -4.51522666250000 1.51173981875000 7.56395061875000 
 N -4.94161966250000 5.07425681875000 7.59201761875000 
 S -5.40606966250000 1.52766481875000 6.14771461875000 
 S -5.74733166250000 4.67352381875000 6.15597261875000 
 S -2.60235366250000 1.55428081875000 3.12960061875000 
 S -2.79864166250000 4.89710081875000 3.30701061875000 
 S -2.89797766250000 1.96048581875000 7.28873261875000 
 S -3.28710666250000 5.31321181875000 7.45553061875000 
