16

 C -3.35936457500000 1.52486658437500 5.49000767812500 
 C -3.05904357500000 5.30411158437500 5.63868167812500 
 C -4.47256257500000 0.999706584374998 4.76046867812500 
 C -4.33577457500000 5.04025058437500 5.03508967812500 
 N -2.31134657500000 1.71465658437500 4.72173267812500 
 N -2.06530457500000 5.47145058437500 4.76174767812500 
 N -4.32204257500000 0.824043584374998 3.49367167812500 
 N -4.27479557500000 4.90104558437500 3.74573267812500 
 N -5.35460357500000 1.48265158437500 7.08531467812500 
 N -4.87666357500000 5.07988758437500 7.59243167812500 
 S -5.90336157500000 0.728922584374997 5.73695067812500 
 S -5.67562957500000 4.64008458437500 6.16307867812500 
 S -2.76777957500000 1.46546158437500 3.14484467812500 
 S -2.79178057500000 5.21107158437500 3.24203167812500 
 S -3.80265157500000 2.03696758437500 7.04930267812500 
 S -3.22729757500000 5.46378758437500 7.37806667812500 
