16

 C -3.21249385625000 1.47499185000000 5.37510260312500 
 C -2.99565785625000 5.30323485000000 5.71556760312500 
 C -4.35001585625000 0.868191850000002 4.71863660312500 
 C -4.29801685625000 5.04464285000000 5.08912460312500 
 N -2.16887385625000 1.73923785000000 4.53919960312500 
 N -2.00953085625000 5.35296585000000 4.81982360312500 
 N -4.22121985625000 0.879641850000002 3.39364460312500 
 N -4.30804085625000 4.89305085000000 3.79161760312500 
 N -4.90879585625000 0.786187850000003 7.23773860312500 
 N -4.53741485625000 4.91188985000000 7.67265160312500 
 S -5.52083185625000 0.274654850000002 5.78468660312500 
 S -5.49279585625000 4.80839485000000 6.38546260312500 
 S -2.72985485625000 1.40504685000000 3.00463060312500 
 S -2.74049185625000 5.14423585000000 3.32240260312500 
 S -3.44268585625000 1.59861385000000 7.12680160312500 
 S -3.00412785625000 5.47356985000000 7.46240460312500 
