16

 C -2.92556414062500 1.74025486875000 5.39838181562500 
 C -3.48576614062500 5.16852186875000 5.54928781562500 
 C -3.95805114062500 1.04538686875000 4.76548881562500 
 C -4.53442114062500 4.41160286875000 4.93766881562500 
 N -1.95161614062500 2.14318186875000 4.57520481562500 
 N -2.52405614062500 5.58204586875000 4.72730281562500 
 N -3.74747114062500 0.834976868750001 3.45945581562500 
 N -4.44921014062500 4.36493786875000 3.59337681562500 
 N -4.51120514062500 1.14812086875000 7.27682181562500 
 N -5.29428914062500 4.69788686875000 7.36278681562500 
 S -5.09245814062500 0.435273868750001 5.90790781562500 
 S -5.85968114062500 3.93546386875000 6.02769781562500 
 S -2.27823814062500 1.58929086875000 3.04013381562500 
 S -2.98031414062500 5.05653486875000 3.23137881562500 
 S -3.04245614062500 1.93951086875000 7.13998381562500 
 S -3.74245314062500 5.29422686875000 7.26312881562500 
