16

 C -3.11730545625000 1.44724767812501 5.65265966562500 
 C -2.98976045625000 5.27817667812501 5.87277066562500 
 C -4.30618945625000 1.10314667812501 4.96305366562500 
 C -4.19964145625000 4.93632967812501 5.15611766562500 
 N -2.06404945625000 1.63898067812501 4.86735966562500 
 N -1.96013645625000 5.51416267812501 5.06591966562500 
 N -4.16801245625000 0.932621678125006 3.63009866562500 
 N -4.07985545625000 4.78070667812501 3.85859466562500 
 N -4.94432445625000 1.19898667812501 7.49675366562500 
 N -4.89969945625000 4.99184067812501 7.65195966562500 
 S -5.62495745625000 0.697316678125006 6.08393466562500 
 S -5.58490745625000 4.77598067812501 6.14404566562500 
 S -2.54412945625000 1.28527967812501 3.24806466562500 
 S -2.45847445625000 5.07946067812501 3.50709766562500 
 S -3.36934145625000 1.65151767812501 7.35784066562500 
 S -3.22990945625000 5.31926267812501 7.62981166562500 
