16

 C -2.68028227187500 1.67510524375000 5.33077488437500 
 C -3.36889127187500 5.08196324375000 5.61956088437500 
 C -3.79395127187500 0.886862243750002 4.77709188437500 
 C -4.48215527187500 4.47857624375000 4.91157188437500 
 N -1.82975827187500 2.04977424375000 4.40578688437500 
 N -2.35287827187500 5.39877624375000 4.83649088437500 
 N -3.81462927187500 0.748993243750002 3.47001288437500 
 N -4.39905327187500 4.55574724375000 3.59347888437500 
 N -4.18661827187500 1.04711424375000 7.31500088437500 
 N -5.02184627187500 4.38958924375000 7.42162188437500 
 S -4.99971327187500 0.567726243750002 5.94157788437500 
 S -5.79911227187500 4.02479124375000 5.97087388437500 
 S -2.45927127187500 1.50755324375000 2.94407488437500 
 S -2.85673727187500 5.06268324375000 3.26744988437500 
 S -2.79657427187500 1.92721124375000 7.10733788437500 
 S -3.53270827187500 5.05533624375000 7.28513188437500 
