16

 C -3.02644109375000 1.42366578437500 5.54316422187500 
 C -3.02041409375000 4.89118978437500 5.24861922187500 
 C -4.21417209375000 0.990743784374997 4.89767422187500 
 C -4.33252909375000 4.83110878437500 4.62297222187500 
 N -1.95161309375000 1.48084278437500 4.73531722187500 
 N -1.97931809375000 4.73785178437500 4.46063822187500 
 N -4.03964409375000 0.688761784374997 3.58971322187500 
 N -4.25682409375000 4.60304278437500 3.31471622187500 
 N -4.84768509375000 1.31016478437500 7.34561322187500 
 N -4.68635909375000 5.25140278437500 7.15220022187500 
 S -5.62843209375000 0.920477784374997 5.94356922187500 
 S -5.57759509375000 4.85418478437500 5.78301322187500 
 S -2.41496309375000 1.04703278437500 3.24605222187500 
 S -2.66049309375000 4.59283778437500 2.93791622187500 
 S -3.25312909375000 1.83101678437500 7.14885122187500 
 S -3.02048009375000 5.32173878437500 6.91551122187500 
