16

 C -2.95005882187500 1.49904578437500 5.31875750937500 
 C -3.20452282187500 4.84536878437500 5.59980150937500 
 C -4.17789682187500 0.960700784374999 4.76588950937500 
 C -4.43964682187500 4.49547978437500 4.92529350937500 
 N -2.03890282187500 1.76791478437500 4.41595750937500 
 N -2.29757482187500 5.35040478437500 4.74408050937500 
 N -4.12026982187500 0.828191784374999 3.44282250937500 
 N -4.39157582187500 4.46042178437500 3.59751550937500 
 N -4.40941682187500 1.00873778437500 7.27824650937500 
 N -5.01335182187500 4.50446478437500 7.41736650937500 
 S -5.33486982187500 0.667563784374999 5.94152550937500 
 S -5.75614082187500 4.04033978437500 5.96554150937500 
 S -2.61661482187500 1.35070678437500 2.94962350937500 
 S -2.90702482187500 5.06750078437500 3.24619250937500 
 S -2.94765282187500 1.75065778437500 7.02168750937500 
 S -3.41809982187500 4.96771078437500 7.29431950937500 
