16

 C -3.10215856562500 1.12505421562500 5.49006399687500 
 C -3.15559356562500 5.57217921562500 5.49510599687500 
 C -4.41083156562500 0.843129215625001 4.85778599687500 
 C -4.20301656562500 4.74296821562500 4.89237699687500 
 N -2.07521156562500 1.20649221562500 4.65923099687500 
 N -2.07228256562500 5.75530121562500 4.73081199687500 
 N -4.30290856562500 0.931179215625001 3.55669199687500 
 N -3.98067256562500 4.51898121562500 3.58699699687500 
 N -4.79704356562500 1.03296921562500 7.40433799687500 
 N -5.04286656562500 5.27654721562500 7.19939099687500 
 S -5.71176656562500 0.778062215625001 6.02172599687500 
 S -5.58194356562500 4.41993921562500 5.90867199687500 
 S -2.66625056562500 0.964342215625001 3.08972699687500 
 S -2.50129356562500 5.09292521562500 3.21601899687500 
 S -3.17656056562500 1.37520021562500 7.17104099687500 
 S -3.53362556562500 5.96294721562500 7.13646599687500 
