16

 C -3.09536555937500 1.75097768437500 5.74031820312500 
 C -3.05079255937500 5.20577568437500 5.65436120312500 
 C -4.37365555937500 1.55122068437500 5.07080520312500 
 C -4.33485555937500 4.96854468437500 5.02260320312500 
 N -2.06740055937500 1.74284968437500 4.91685320312500 
 N -2.03760255937500 5.42660968437500 4.81180320312500 
 N -4.34057455937500 1.49849168437500 3.75728320312500 
 N -4.28731455937500 4.94686168437500 3.70484520312500 
 N -4.80456255937500 1.52419268437500 7.66380420312500 
 N -4.84168655937500 4.98824868437500 7.56696520312500 
 S -5.69903655937500 1.31890068437500 6.26229820312500 
 S -5.65736655937500 4.68655068437500 6.15521420312500 
 S -2.70532855937500 1.71677068437500 3.32667120312500 
 S -2.66920055937500 5.29425068437500 3.28973920312500 
 S -3.22069255937500 1.88278768437500 7.50187720312500 
 S -3.22886355937500 5.30544268437500 7.33655720312500 
