16

 C -3.21654840312500 1.49076197812500 5.57177949062500 
 C -3.13362240312500 5.33438997812500 5.63848349062500 
 C -4.34890140312500 1.07047997812500 4.77845849062500 
 C -4.35123840312500 4.99522497812500 4.94726949062500 
 N -2.17024540312500 1.79554597812500 4.80305449062500 
 N -2.07202440312500 5.42045397812500 4.82708149062500 
 N -4.17260740312500 1.20389097812500 3.46057249062500 
 N -4.24806740312500 4.83103197812500 3.62240949062500 
 N -5.00163140312500 0.649117978125000 7.27291849062500 
 N -4.79316640312500 5.03889997812500 7.48820949062500 
 S -5.76871140312500 0.646860978125000 5.74570249062500 
 S -5.66516340312500 5.01200897812500 6.08042549062500 
 S -2.58907040312500 1.64463597812500 3.21113749062500 
 S -2.59232940312500 5.06341797812500 3.32090149062500 
 S -3.52879640312500 1.44505397812500 7.28586349062500 
 S -3.15714540312500 5.58842097812500 7.39828549062500 
