16

 C -3.01341301875000 1.85349844062500 5.46540521875000 
 C -3.64159901875000 5.32577944062500 5.52455221875000 
 C -4.10748101875000 1.14271544062500 4.81461321875000 
 C -4.65436701875000 4.46711944062500 4.91341321875000 
 N -2.02691601875000 2.12300244062500 4.65702721875000 
 N -2.61625401875000 5.50767544062500 4.68778621875000 
 N -3.88185301875000 0.930160440625000 3.56499021875000 
 N -4.50316001875000 4.23296544062500 3.60721821875000 
 N -4.66259301875000 0.937374440625001 7.25707121875000 
 N -5.26192001875000 4.67241544062500 7.43094021875000 
 S -5.34772301875000 0.540328440625001 5.79498621875000 
 S -5.91605401875000 3.98530744062500 6.06713821875000 
 S -2.37563201875000 1.48088344062500 3.15615921875000 
 S -3.06467601875000 4.96649144062500 3.20863821875000 
 S -3.27069801875000 1.85213844062500 7.15175821875000 
 S -3.79335301875000 5.48516544062500 7.23593121875000 
