16

 C -3.16234903125000 1.15713830312500 5.47714101875000 
 C -3.08784403125000 5.45764330312500 5.65777501875000 
 C -4.42886603125000 0.773583303125000 4.91315801875000 
 C -4.24853703125000 4.94081030312500 4.99118701875000 
 N -2.17749303125000 1.36941030312500 4.62503801875000 
 N -2.14334503125000 5.92659430312500 4.88010701875000 
 N -4.37002803125000 0.626644303125000 3.60848701875000 
 N -4.13149303125000 4.84246430312500 3.67282701875000 
 N -4.99771603125000 0.895076303125000 7.44018201875000 
 N -4.82163703125000 4.72297030312500 7.43457701875000 
 S -5.79467903125000 0.465538303125000 6.02229501875000 
 S -5.55196103125000 4.34433330312500 6.02017101875000 
 S -2.80568003125000 1.12807930312500 3.13328201875000 
 S -2.66597203125000 5.59111630312500 3.32121601875000 
 S -3.36340203125000 1.23353130312500 7.26237101875000 
 S -3.35316603125000 5.44057330312500 7.37084101875000 
