16

 C -3.22166146250000 1.55195537500000 5.46733083125000 
 C -2.99672346250000 5.11368237500000 5.70909683125000 
 C -4.50834546250000 1.14924137500000 4.96242683125000 
 C -4.23055246250000 4.75695537500000 5.02246683125000 
 N -2.34142346250000 1.79573537500000 4.52535483125000 
 N -2.04444046250000 5.22785837500000 4.84559583125000 
 N -4.60750446250000 1.00470137500000 3.63076983125000 
 N -4.22283946250000 4.55679237500000 3.73604883125000 
 N -4.80251946250000 1.16517637500000 7.49886083125000 
 N -4.83177346250000 5.12157637500000 7.47782683125000 
 S -5.73273546250000 0.991645375000001 6.09774183125000 
 S -5.57225646250000 4.46607937500000 6.11830983125000 
 S -3.07453046250000 1.40713737500000 3.11016183125000 
 S -2.64200746250000 4.97235837500000 3.32124083125000 
 S -3.24498746250000 1.71500437500000 7.25186783125000 
 S -3.19802546250000 5.46108137500000 7.42808883125000 
