16

 C -3.31539630000000 1.15315397500000 5.69708143750000 
 C -2.91376030000000 5.10384097500000 5.55224343750000 
 C -4.42899230000000 0.612988974999999 5.00842143750000 
 C -4.03788330000000 4.47833597500000 4.89025043750000 
 N -2.30986430000000 1.38532197500000 4.89378843750000 
 N -1.89174430000000 5.26512197500000 4.71883943750000 
 N -4.26969430000000 0.461967974999999 3.72410143750000 
 N -4.00750230000000 4.39997797500000 3.56708443750000 
 N -5.09900730000000 0.682754974999999 7.43917743750000 
 N -4.69429430000000 4.65622197500000 7.44051443750000 
 S -5.83777330000000 0.359588974999999 5.98307443750000 
 S -5.38000330000000 4.34579897500000 5.90435343750000 
 S -2.71298330000000 0.860425974999999 3.37372243750000 
 S -2.50267230000000 4.89896997500000 3.14957543750000 
 S -3.47650630000000 1.19224297500000 7.40715043750000 
 S -3.09960030000000 5.24599197500000 7.29330843750000 
