16

 C -3.25387033437499 1.52464334062500 5.49755842812500 
 C -3.12538933437499 5.19858434062500 5.87126242812500 
 C -4.47181533437499 1.13508134062501 4.80401742812500 
 C -4.41172633437500 4.97858034062500 5.29090642812500 
 N -2.22691033437499 1.75136934062500 4.68666042812500 
 N -2.07017633437499 5.27145234062500 5.06119042812500 
 N -4.40509133437499 1.07603034062500 3.45198042812500 
 N -4.38211133437500 4.81768734062500 3.94195042812500 
 N -5.04234433437500 1.01064034062500 7.35058342812500 
 N -4.80270033437499 5.08270634062500 7.81947642812500 
 S -5.78158933437499 0.712720340625005 5.86121542812500 
 S -5.70772333437499 5.01567534062501 6.50449942812500 
 S -2.81172733437499 1.48064034062500 3.08292742812500 
 S -2.76363633437499 5.05810534062500 3.56288542812500 
 S -3.44853233437499 1.54806934062500 7.22189942812500 
 S -3.16491533437499 5.38335534062500 7.60829642812500 
