16

 C -2.95062174375000 1.40040625625000 5.52618839375000 
 C -3.10410374375000 5.25738525625000 5.14680139375000 
 C -4.15466274375000 0.977859256250000 4.86542439375000 
 C -4.33473274375000 4.70321325625000 4.60893639375000 
 N -1.78872174375000 1.34317325625000 4.80727739375000 
 N -2.07551974375000 5.32433025625000 4.32526039375000 
 N -3.94027674375000 0.685998256250000 3.60984139375000 
 N -4.30241874375000 4.53152125625000 3.31511739375000 
 N -4.91505274375000 1.47929225625000 7.20506139375000 
 N -4.72381974375000 4.87043325625000 7.12089739375000 
 S -5.61717074375000 0.865635256250001 5.83699039375000 
 S -5.66757974375000 4.80640725625000 5.74400439375000 
 S -2.28671374375000 0.974405256250001 3.28193339375000 
 S -2.72701074375000 4.92293525625000 2.85629539375000 
 S -3.24178974375000 1.59334725625000 7.23799439375000 
 S -3.15168074375000 5.36564025625000 6.84719439375000 
