16

 C -3.04064642500000 0.920404918750002 5.48364992500000 
 C -3.00701842500000 5.00401191875000 5.52622192500000 
 C -4.23445742500000 0.580777918750002 4.71173392500000 
 C -4.28245842500000 4.78935791875000 4.93346992500000 
 N -1.93769142500000 1.10905491875000 4.76256192500000 
 N -1.97671242500000 4.94633791875000 4.65268092500000 
 N -4.08116442500000 0.524090918750002 3.39646192500000 
 N -4.30019742500000 4.51592891875000 3.59363592500000 
 N -4.98761342500000 0.983578918750002 7.22048592500000 
 N -4.88997842500000 5.08078191875000 7.40665792500000 
 S -5.64317242500000 0.439517918750002 5.75343692500000 
 S -5.64358042500000 4.89043691875000 5.91625992500000 
 S -2.39118942500000 0.811745918750002 3.18678992500000 
 S -2.69728542500000 4.65861691875000 3.18284192500000 
 S -3.36598342500000 1.32396491875000 7.15833892500000 
 S -3.21611142500000 5.27765391875000 7.27169192500000 
