16

 C -3.22705200937500 1.51248157812500 5.47654320000000 
 C -2.98575900937500 5.05506357812500 5.52483020000000 
 C -4.46163900937500 1.07413357812500 4.90813320000000 
 C -4.24707900937500 4.75308457812500 4.85583020000000 
 N -2.26881500937500 1.77385357812500 4.61199120000000 
 N -1.96925900937500 5.03403457812500 4.64700220000000 
 N -4.39556600937500 0.946060578125000 3.56278620000000 
 N -4.12748600937500 4.27054857812500 3.58382620000000 
 N -4.88458900937500 1.43497457812500 7.44660320000000 
 N -4.65384800937500 5.08180857812500 7.33110620000000 
 S -5.64511400937500 0.865281578125000 6.10200120000000 
 S -5.56995200937500 4.85810057812500 5.96866920000000 
 S -2.82563700937500 1.29747257812500 3.11352820000000 
 S -2.56327100937500 4.50356057812500 3.18243720000000 
 S -3.24040000937500 1.78643857812500 7.19756120000000 
 S -3.02155600937500 5.30068457812500 7.20804020000000 
