16

 C -3.01305273125000 1.42212473750000 5.53712374375000 
 C -3.22368973125000 5.03505773750000 5.41064774375000 
 C -4.20304773125000 0.889821737499999 4.77347374375000 
 C -4.44614273125000 4.50015973750000 4.90105374375000 
 N -1.96760173125000 1.64069273750000 4.75882874375000 
 N -2.22409773125000 5.15916973750000 4.56135474375000 
 N -4.00300273125000 0.652396737499999 3.47911174375000 
 N -4.41790973125000 4.29613073750000 3.59310574375000 
 N -4.99630473125000 1.36175273750000 7.18943974375000 
 N -4.89966273125000 5.22329873750000 7.31420074375000 
 S -5.65592573125000 0.879185737499999 5.70386974375000 
 S -5.73761873125000 4.48439173750000 6.07812074375000 
 S -2.43054773125000 1.05187173750000 3.21574774375000 
 S -2.85348373125000 4.63493073750000 3.09034274375000 
 S -3.38310973125000 1.88056573750000 7.15752274375000 
 S -3.31881073125000 5.55735073750000 7.01152274375000 
