16

 C -3.16139757812500 1.42576571250000 5.25487198437500 
 C -3.04664557812500 5.21112571250000 5.55897798437500 
 C -4.34703657812500 0.909649712499998 4.60521698437500 
 C -4.29810357812500 4.79351971250000 5.04751698437500 
 N -2.17676757812500 1.78895171250000 4.42437398437500 
 N -2.05481257812500 5.22763571250000 4.67516898437500 
 N -4.30946257812500 0.999488712499998 3.27749898437500 
 N -4.30918557812500 4.55376071250000 3.74740998437500 
 N -4.71142157812500 0.528010712499998 7.18958298437500 
 N -4.63226257812500 5.04448271250000 7.57116498437500 
 S -5.47473057812500 0.265936712499999 5.75778098437500 
 S -5.49105357812500 4.44313171250000 6.26363398437500 
 S -2.74747257812500 1.59542671250000 2.90113098437500 
 S -2.72236657812500 4.87627471250000 3.22857998437500 
 S -3.24122757812500 1.27102271250000 7.02173798437500 
 S -3.04933957812500 5.57040571250000 7.22232898437500 
