16

 C -3.08050775000000 1.64629422187500 5.45083693125000 
 C -3.00290975000000 5.26479922187500 5.48688093125000 
 C -4.32957375000000 1.42388022187500 4.76804793125000 
 C -4.26527775000000 4.96083422187500 4.87674393125000 
 N -2.08581975000000 1.73920722187500 4.57189193125000 
 N -2.00649575000000 5.47452022187500 4.62157293125000 
 N -4.24615475000000 1.14873722187500 3.47428493125000 
 N -4.19931575000000 4.81464822187500 3.54710093125000 
 N -4.89077275000000 1.30064822187500 7.33039393125000 
 N -4.75333275000000 4.95096122187500 7.38373993125000 
 S -5.70680375000000 1.20969622187500 5.84587293125000 
 S -5.60176275000000 4.86032822187500 5.93782693125000 
 S -2.63331075000000 1.49801022187500 3.03397293125000 
 S -2.65383275000000 5.23308722187500 3.11286993125000 
 S -3.27319675000000 1.57446322187500 7.20439993125000 
 S -3.09465875000000 5.16768522187500 7.24224293125000 
