16

 C -3.15038085312500 1.33367257500000 5.29130270937500 
 C -2.93668885312500 4.93098857500000 5.63222670937500 
 C -4.33031985312500 0.699865575000000 4.57673070937500 
 C -4.20714985312500 4.53121757500000 5.06895070937500 
 N -2.12106385312500 1.67710157500000 4.53136070937500 
 N -2.01609085312500 5.23505757500000 4.72430570937500 
 N -4.08143885312500 0.534930575000001 3.28271370937500 
 N -4.20043485312500 4.30914957500000 3.75335570937500 
 N -4.86218185312500 0.781423575000001 7.10528370937500 
 N -4.55584185312500 4.69597957500000 7.63622870937500 
 S -5.60294585312500 0.308190575000001 5.69206570937500 
 S -5.43597585312500 4.47618857500000 6.25273270937500 
 S -2.59760285312500 1.23141257500000 2.98475770937500 
 S -2.65693785312500 4.77656557500000 3.23668170937500 
 S -3.33177185312500 1.46482157500000 6.95474870937500 
 S -2.91158585312500 5.08810657500000 7.41048170937500 
