16

 C -3.35386979062500 1.18433957500000 5.50739165312500 
 C -3.16218979062500 4.96847057500000 5.06172265312500 
 C -4.55171679062500 0.772329575000000 4.82722565312500 
 C -4.37417379062500 4.38177157500000 4.44811965312500 
 N -2.33113679062500 1.51867957500000 4.72917165312500 
 N -2.15972379062500 5.19784957500000 4.21981465312500 
 N -4.42048679062500 0.727938575000000 3.49434065312500 
 N -4.22783979062500 4.12194457500000 3.16643265312500 
 N -5.16066779062500 0.975436575000000 7.30861765312500 
 N -4.99277079062500 4.88425557500000 6.90691465312500 
 S -5.92548579062500 0.494120575000000 5.91162665312500 
 S -5.73225179062500 4.25115357500000 5.55117765312500 
 S -2.88915379062500 1.19613257500000 3.17701965312500 
 S -2.74033779062500 4.69974757500000 2.74558665312500 
 S -3.54692879062500 1.47363857500000 7.16916365312500 
 S -3.35486279062500 5.22195057500000 6.77638465312500 
