16

 C -3.27112596562500 1.21104395000000 5.66201439062500 
 C -2.91502096562500 5.09250895000000 5.52612639062500 
 C -4.48955296562500 0.694618950000001 5.03794839062500 
 C -4.14489696562500 4.66770695000000 4.90816539062500 
 N -2.16765896562500 1.30391995000000 4.88495539062500 
 N -1.93050096562500 5.28037295000000 4.66510139062500 
 N -4.28942896562500 0.439975950000001 3.72210639062500 
 N -4.06630196562500 4.46053395000000 3.59626439062500 
 N -5.03836996562500 0.716800950000001 7.45374939062500 
 N -4.63454996562500 4.66159995000000 7.35642739062500 
 S -5.80162196562500 0.357241950000001 6.03501939062500 
 S -5.44131896562500 4.28453395000000 5.98593339062500 
 S -2.78312096562500 0.915856950000001 3.40401739062500 
 S -2.51086796562500 4.89091495000000 3.20462039062500 
 S -3.51411796562500 1.27090195000000 7.34637339062500 
 S -3.11092696562500 5.25116995000000 7.30741039062500 
