16

 C -2.82917135312500 1.67323295625000 5.77226245937500 
 C -3.30923735312500 5.36250195625000 5.44122745937500 
 C -4.13475535312500 1.46509395625000 5.11905245937500 
 C -4.53744435312500 4.90136295625000 4.85973345937500 
 N -1.84801135312500 1.79295595625000 4.86502045937500 
 N -2.35193635312500 5.53779095625000 4.52171345937500 
 N -4.13407535312500 1.40404195625000 3.77683245937500 
 N -4.52273435312500 4.86240595625000 3.54713245937500 
 N -4.64141835312500 1.59901295625000 7.65873245937500 
 N -4.98344435312500 5.10048495625000 7.37097045937500 
 S -5.49482235312500 1.43761495625000 6.27013745937500 
 S -5.81597235312500 4.52125995625000 6.01229245937500 
 S -2.49796535312500 1.66794195625000 3.37168245937500 
 S -3.02065235312500 5.33482295625000 3.04551245937500 
 S -2.99868835312500 1.63982095625000 7.55019545937500 
 S -3.46181035312500 5.69812095625000 7.15207445937500 
