16

 C -3.12291054687500 1.36628886562500 5.53978750000000 
 C -3.47625054687500 5.11332886562500 5.55221050000000 
 C -4.34392154687500 0.959193865624998 4.85716050000000 
 C -4.65065754687500 4.51658386562500 4.92775350000000 
 N -2.07381354687500 1.75931686562500 4.75713450000000 
 N -2.52011554687500 5.33402686562500 4.66959550000000 
 N -4.22815154687500 0.918862865624998 3.51148950000000 
 N -4.58552954687500 4.26012086562500 3.62702450000000 
 N -5.02410554687500 1.18402686562500 7.32937550000000 
 N -5.14176954687500 4.88359586562500 7.40634350000000 
 S -5.71495054687500 0.715790865624998 5.87030050000000 
 S -5.91681954687500 4.16890286562500 6.06115450000000 
 S -2.70725254687500 1.45749286562500 3.23201750000000 
 S -3.11069054687500 4.89734786562500 3.17648050000000 
 S -3.43330754687500 1.64013286562500 7.20552250000000 
 S -3.56497554687500 5.32720086562500 7.23543350000000 
