16

 C -3.18865160624999 1.53115200625000 5.38861436562500 
 C -3.15364560625000 5.28386200625000 6.02291636562500 
 C -4.33484860625000 0.986100006250002 4.70339736562500 
 C -4.37069860625000 5.03149600625000 5.34343336562500 
 N -2.12832360625000 1.80960200625000 4.65313436562500 
 N -2.08269260624999 5.36284300625000 5.21550036562500 
 N -4.07841060624999 0.770437006250003 3.41577836562500 
 N -4.30791760624999 4.86300300625000 4.00141936562500 
 N -4.88090160624999 1.04328400625000 7.25685636562500 
 N -4.98269160625000 5.15428800625000 7.82113336562500 
 S -5.63230560624999 0.656818006250003 5.81537336562500 
 S -5.69987460624999 4.89682800625000 6.38018736562500 
 S -2.58824760625000 1.45520800625000 3.04820136562500 
 S -2.75136660625000 5.05384700625000 3.64236036562500 
 S -3.22831660625000 1.46796800625000 7.10461636562500 
 S -3.38868360624999 5.42351100625000 7.76570236562500 
