16

 C -3.20408408437500 1.30392301250000 5.57871883750000 
 C -3.17125108437500 4.86636401250000 5.66018983750000 
 C -4.43966108437500 0.821638012499999 5.11605383750000 
 C -4.39317008437500 4.47436201250000 5.00162383750000 
 N -2.19065808437500 1.34506301250000 4.70196683750000 
 N -2.12997308437500 5.06391001250000 4.81148183750000 
 N -4.40251808437500 0.424705012500000 3.86873483750000 
 N -4.26807008437500 4.17442601250000 3.68280083750000 
 N -4.75769408437500 1.22819501250000 7.57082883750000 
 N -4.92507108437500 4.89812701250000 7.53685383750000 
 S -5.76129708437500 0.856815012499999 6.26343283750000 
 S -5.69852408437500 4.29601701250000 6.15720583750000 
 S -2.82944408437500 0.746434012500000 3.35354483750000 
 S -2.63804108437500 4.47108201250000 3.34906083750000 
 S -3.26463708437500 1.68385501250000 7.22404783750000 
 S -3.23014808437500 5.16782601250000 7.35005783750000 
