16

 C -3.02816460000000 1.34696044687500 5.72883948125000 
 C -3.19059060000000 5.11655544687500 5.42262848125000 
 C -4.16105260000000 0.660685446875003 5.13216948125000 
 C -4.38876360000000 4.48354644687500 4.84633348125000 
 N -1.97329760000000 1.44732044687500 4.92579148125000 
 N -2.15607260000000 5.19087244687500 4.58133648125000 
 N -3.94584160000000 0.258418446875003 3.88239848125000 
 N -4.28349360000000 4.24948544687500 3.52116748125000 
 N -4.76092460000000 0.809199446875002 7.61007548125000 
 N -4.93183060000000 4.84502444687500 7.38139148125000 
 S -5.49480260000000 0.326263446875002 6.19556348125000 
 S -5.67074560000000 4.26688044687500 5.97468948125000 
 S -2.42221760000000 0.780853446875002 3.43721248125000 
 S -2.68314660000000 4.57779744687500 3.12900748125000 
 S -3.23598460000000 1.50357844687500 7.47459348125000 
 S -3.25135360000000 5.15983044687500 7.23841448125000 
