16

 C -3.00690286875000 1.52802638125000 5.61719144375000 
 C -3.00981386875000 5.20027238125000 5.69330544375000 
 C -4.33210086875000 1.27964838125000 5.01456144375000 
 C -4.26197086875000 4.91335238125000 5.01015944375000 
 N -2.06848086875000 1.84663638125000 4.73172544375000 
 N -2.02074686875000 5.51319938125000 4.85042444375000 
 N -4.35014186875000 1.31215938125000 3.69943144375000 
 N -4.19958886875000 4.85178538125000 3.68935144375000 
 N -4.74749386875000 1.55323538125000 7.48365844375000 
 N -4.88156386875000 4.90781138125000 7.46050144375000 
 S -5.66716986875000 1.28977638125000 6.16337144375000 
 S -5.62027986875000 4.57292238125000 5.99369644375000 
 S -2.83849386875000 1.65488738125000 3.25825844375000 
 S -2.61123386875000 5.19007938125000 3.29779644375000 
 S -3.08486386875000 1.79590038125000 7.35212244375000 
 S -3.27416686875000 5.27059838125000 7.39250144375000 
