16

 C -3.03344367187500 1.37065542812499 5.44295066250000 
 C -3.05897567187500 5.11499642812499 5.66438766250000 
 C -4.14334667187500 0.785308428124996 4.75498866250000 
 C -4.16659567187500 4.46432742812500 4.91586966250000 
 N -2.08319567187500 1.70765942812499 4.60110266250000 
 N -2.00890167187500 5.29116742812499 4.89071866250000 
 N -4.01283067187500 0.654993428124994 3.42196566250000 
 N -3.89128167187500 4.21105742812500 3.62812166250000 
 N -4.77099567187500 0.963925428124995 7.36250366250000 
 N -5.07530667187500 5.02059242812500 7.21572266250000 
 S -5.44376867187500 0.374979428124995 5.95267266250000 
 S -5.66120267187500 4.38547142812500 5.81428366250000 
 S -2.54237867187500 1.35586842812499 3.06798066250000 
 S -2.35298467187500 4.80465642812499 3.37046766250000 
 S -3.24533867187500 1.66104742812499 7.15194966250000 
 S -3.52208867187500 5.53944842812500 7.26159466250000 
