16

 C -3.15429606562500 1.14518396875000 5.47281735000000 
 C -3.08308306562500 5.43385296875000 5.64191335000000 
 C -4.44014306562500 0.784760968750001 4.91066135000000 
 C -4.27127106562500 4.96116396875000 4.96346035000000 
 N -2.15815106562500 1.39190296875000 4.63818635000000 
 N -2.13864706562500 5.91495696875000 4.85781335000000 
 N -4.36123206562500 0.650462968750000 3.59367335000000 
 N -4.13973406562500 4.83635996875000 3.66343235000000 
 N -5.00353106562500 0.915170968750000 7.42954835000000 
 N -4.82021606562500 4.73685796875000 7.44269335000000 
 S -5.79399406562500 0.461486968750000 6.03431935000000 
 S -5.53965606562500 4.34453196875000 6.00883335000000 
 S -2.79375806562500 1.10920796875000 3.13272435000000 
 S -2.65563906562500 5.59735096875000 3.30685835000000 
 S -3.35047106562500 1.23613896875000 7.25807335000000 
 S -3.36299806562500 5.45341896875000 7.36430735000000 
