16

 C -3.11869956250000 1.42016199062500 5.54960794687500 
 C -3.36181756250000 5.21880299062501 5.41843894687500 
 C -4.37459256250000 0.945102990625005 4.89059694687500 
 C -4.55554056250000 4.81708199062501 4.70711194687500 
 N -2.10252456250000 1.61995199062500 4.68036794687500 
 N -2.32205156250000 5.47971099062500 4.65282194687500 
 N -4.16621456250000 0.686376990625005 3.60151594687500 
 N -4.40593456250000 4.69557299062501 3.39806194687500 
 N -4.88747956250000 1.24794999062500 7.47505494687500 
 N -5.08012856250000 4.75395499062501 7.24336194687500 
 S -5.63738056250000 0.638678990625005 6.08648094687500 
 S -5.85145956250000 4.45394499062501 5.78423294687500 
 S -2.60054056250000 1.28011099062500 3.13072094687500 
 S -2.80376156250000 5.20970699062501 3.10581894687500 
 S -3.29367056250000 1.60915999062501 7.25433794687500 
 S -3.52764356250000 5.25964699062501 7.20121594687500 
