16

 C -3.13364617187500 1.19181733437500 5.45710841250000 
 C -3.06829417187500 4.64894833437500 5.54540641250000 
 C -4.25821417187500 0.558627334374998 4.79144241250000 
 C -4.30754817187500 4.35341833437500 4.88797941250000 
 N -2.06102217187500 1.46380133437500 4.70289241250000 
 N -2.03784517187500 4.80655533437500 4.73196441250000 
 N -4.00329117187500 0.354054334374998 3.48443241250000 
 N -4.13805717187500 4.10242033437500 3.59572441250000 
 N -4.99709517187500 1.06557033437500 7.23115341250000 
 N -4.93390617187500 5.13837633437500 7.26139541250000 
 S -5.68365917187500 0.345445334374999 5.87232641250000 
 S -5.68740517187500 4.43359633437500 5.92201441250000 
 S -2.54181117187500 1.06084933437500 3.16874441250000 
 S -2.57070717187500 4.46512333437500 3.17592841250000 
 S -3.47385917187500 1.67178333437500 7.11369841250000 
 S -3.29423617187500 5.42242733437500 7.17525641250000 
