16

 C -2.94203494687500 1.63224294687500 5.38912030937500 
 C -3.01702694687500 5.17556794687500 5.66726330937500 
 C -4.20946594687500 1.24831394687500 4.81476330937500 
 C -4.18680494687500 4.64462494687500 5.00481430937500 
 N -1.89383994687500 1.58642094687500 4.53527730937500 
 N -1.95426794687500 5.42969194687500 4.88925530937500 
 N -4.16508494687500 1.01372494687500 3.47819630937500 
 N -4.03105494687500 4.49428394687500 3.71164330937500 
 N -4.51730394687500 1.24001894687500 7.42339430937500 
 N -4.87631894687500 4.84680294687500 7.48144930937500 
 S -5.41424894687500 1.12068694687500 6.04251630937500 
 S -5.55944894687500 4.38641294687500 6.01925730937500 
 S -2.63043594687500 1.31720794687500 3.04999530937500 
 S -2.48975594687500 5.07296494687500 3.33412430937500 
 S -2.86275294687500 1.61665394687500 7.16277530937500 
 S -3.30583794687500 5.36270494687500 7.38261430937500 
