16

 C -3.41532149375000 1.24414210000000 5.92904945937500 
 C -3.10317049375000 5.02420110000000 5.18606145937500 
 C -4.55871149375000 0.924451100000001 5.16217045937500 
 C -4.35704249375000 4.73505210000000 4.53331945937500 
 N -2.30868749375000 1.51218110000000 5.23780345937500 
 N -2.03502949375000 5.10250510000000 4.42766245937500 
 N -4.36796849375000 0.801432100000000 3.84694345937500 
 N -4.17556849375000 4.57468810000000 3.24218845937500 
 N -5.34551649375000 1.05410810000000 7.61371645937500 
 N -4.94348649375000 4.92656410000000 7.01438945937500 
 S -5.95872449375000 0.455048100000001 6.15089145937500 
 S -5.74215449375000 4.51549510000000 5.57037745937500 
 S -2.75855449375000 1.17229310000000 3.67199845937500 
 S -2.54652849375000 4.70399910000000 2.87115645937500 
 S -3.66253749375000 1.22978310000000 7.75289545937500 
 S -3.30547349375000 5.16312310000000 6.91895045937500 
