16

 C -3.10269660000000 1.58759736562500 5.48282522187500 
 C -3.48123960000000 5.09297436562500 5.56778322187500 
 C -4.22419360000000 0.948404365624999 4.73581222187500 
 C -4.66051760000000 4.48777036562500 4.96134022187500 
 N -2.05165960000000 1.90715636562500 4.73936622187500 
 N -2.61491960000000 5.51059436562500 4.65691222187500 
 N -3.97880060000000 0.861050365624999 3.41901922187500 
 N -4.56860260000000 4.25926136562500 3.64842622187500 
 N -4.79787760000000 0.879203365624999 7.29831822187500 
 N -5.16894360000000 4.62740836562500 7.48905622187500 
 S -5.58832560000000 0.683133365624998 5.85626322187500 
 S -5.93903160000000 4.11671136562500 6.09093922187500 
 S -2.48312260000000 1.54931136562500 3.16373222187500 
 S -3.11540360000000 4.87971136562500 3.16057722187500 
 S -3.40338360000000 1.83724636562500 7.22852522187500 
 S -3.80675960000000 5.49413736562500 7.21011022187500 
