16

 C -3.13741231250000 1.44102610625000 5.52101257500000 
 C -3.57057831250000 5.13251810625000 5.50687057500000 
 C -4.24479131250000 0.905124106249998 4.82608757500000 
 C -4.65594031250000 4.38838410625000 4.95834057500000 
 N -2.13907731250000 1.78898610625000 4.75670157500000 
 N -2.55856831250000 5.38187110625000 4.65475757500000 
 N -4.09180831250000 0.903818106249998 3.52372257500000 
 N -4.61139731250000 4.27096710625000 3.63915057500000 
 N -4.92969831250000 1.00237610625000 7.32235957500000 
 N -5.18681931250000 4.71193810625000 7.44628057500000 
 S -5.66444531250000 0.717684106249998 5.86591957500000 
 S -5.90221231250000 4.16607210625000 6.05609157500000 
 S -2.55994531250000 1.53814910625000 3.17210857500000 
 S -3.13651731250000 4.88762410625000 3.21019557500000 
 S -3.43385331250000 1.75241210625000 7.18641057500000 
 S -3.67082031250000 5.44591410625000 7.24087057500000 
