16

 C -3.29535017812500 1.04614290625000 5.67012357500000 
 C -2.86803517812500 4.96836890625000 5.52453957500000 
 C -4.47646717812500 0.572648906250002 4.91833057500000 
 C -4.04857817812500 4.47912890625000 4.88123057500000 
 N -2.26900717812500 1.44622490625000 4.88224157500000 
 N -1.87632417812500 5.31967790625000 4.68442457500000 
 N -4.26786217812500 0.406619906250002 3.61039757500000 
 N -3.91664917812500 4.30277590625000 3.56548957500000 
 N -5.14080317812500 0.725585906250002 7.49752257500000 
 N -4.70477917812500 4.67834490625000 7.37401757500000 
 S -5.85332917812500 0.353958906250002 5.98488157500000 
 S -5.41968517812500 4.36996890625000 5.93167957500000 
 S -2.64172017812500 0.860955906250002 3.35150257500000 
 S -2.43722317812500 4.91475290625000 3.13641057500000 
 S -3.50549117812500 1.10178890625000 7.47406657500000 
 S -3.11624717812500 5.21771090625000 7.25705057500000 
