16

 C -3.13800543437500 1.25675115625000 5.42866729687500 
 C -3.03792243437500 5.10648715625000 5.66637029687500 
 C -4.25298743437500 0.622724156250005 4.77199229687500 
 C -4.17273543437500 4.53132315625001 4.90242829687500 
 N -2.12927743437500 1.75866715625000 4.71836029687500 
 N -1.97691043437500 5.28673915625000 4.90258029687500 
 N -4.08630443437500 0.683948156250004 3.43695629687500 
 N -3.97761943437500 4.32715815625000 3.59919429687500 
 N -4.82127143437500 0.935799156250004 7.29873829687500 
 N -5.21400143437500 5.10388315625000 7.17109929687500 
 S -5.58123243437500 0.360086156250004 5.97033729687500 
 S -5.60662743437500 4.28526015625000 5.74315729687500 
 S -2.52367743437500 1.36555315625001 3.13650629687500 
 S -2.44809643437500 4.85243515625000 3.31975029687500 
 S -3.31350743437500 1.60209315625000 7.12539229687500 
 S -3.55281843437500 5.60497015625000 7.29004729687500 
