16

 C -3.15001151874999 1.44969772812499 5.68148876250000 
 C -2.92176351874999 5.19187372812499 5.47049976250000 
 C -4.38978851874999 1.15135872812499 5.03770376250000 
 C -4.14774651874999 4.85343972812499 4.84719576250000 
 N -2.17175951874999 1.64232172812499 4.81614476250000 
 N -1.90750651874999 5.35192272812499 4.60600476250000 
 N -4.34198551874999 1.18668972812499 3.70936876250000 
 N -4.09389851874999 4.76609172812499 3.52955176250000 
 N -4.98011751874999 1.53299572812499 7.54257176250000 
 N -4.68486751874999 5.13322072812499 7.26556476250000 
 S -5.70638851874999 0.934357728124994 6.15758376250000 
 S -5.41873751874999 4.58460972812499 5.95065476250000 
 S -2.75723251874999 1.42313072812499 3.29893376250000 
 S -2.52916551874999 5.11544072812499 3.08027176250000 
 S -3.31771251874999 1.84615972812499 7.36515776250000 
 S -3.06390951874999 5.31246772812499 7.16369876250000 
