16

 C -3.15869543437500 0.940967437500001 5.62303781875000 
 C -3.19538843437500 4.87654643750000 5.33831181875000 
 C -4.40316643437500 0.774486437500001 4.90290581875000 
 C -4.39631343437500 4.43379243750000 4.62661781875000 
 N -2.10147543437500 0.969424437500001 4.87178681875000 
 N -2.14411443437500 5.02088843750000 4.57760281875000 
 N -4.20623543437500 0.814679437500001 3.58446381875000 
 N -4.23450543437500 4.26852243750000 3.31249781875000 
 N -4.97689243437500 0.635747437500001 7.36141181875000 
 N -4.91650843437500 4.68025443750000 7.12858181875000 
 S -5.78209243437500 0.410514437500001 5.92057481875000 
 S -5.67304843437500 4.13877343750000 5.78670281875000 
 S -2.58124543437500 0.932761437500001 3.29141681875000 
 S -2.64207143437500 4.70326343750000 3.02441581875000 
 S -3.32873043437500 0.899106437500001 7.31378281875000 
 S -3.46074543437500 5.38242443750000 6.98526081875000 
