16

 C -3.27918787500000 1.38695535625000 5.48128354687500 
 C -3.03049487500000 5.30913335625000 5.74567054687500 
 C -4.39450687500000 0.918113356250003 4.75251654687500 
 C -4.29149287500000 5.11874335625000 5.04186754687500 
 N -2.23440587500000 1.64387835625000 4.72646754687500 
 N -1.98255987500000 5.47489035625000 4.93950354687500 
 N -4.22485687500000 0.849664356250003 3.42970154687500 
 N -4.15779987500000 4.92951335625000 3.73539554687500 
 N -5.10264687500000 1.03287735625000 7.22205454687500 
 N -5.04213487500000 5.16458035625000 7.55311054687500 
 S -5.70964787500000 0.441453356250003 5.74856254687500 
 S -5.76653587500000 5.05235335625000 6.04523054687500 
 S -2.69158787500000 1.44292035625000 3.20277654687500 
 S -2.55919387500000 5.22629035625000 3.38788354687500 
 S -3.53430587500000 1.48202435625000 7.19429154687500 
 S -3.36669087500000 5.57761235625000 7.44278954687500 
