16

 C -3.22477111250000 0.864137909374996 5.48063236875000 
 C -3.34660311250000 5.08953790937500 5.48952136875000 
 C -4.48697011250000 0.596405909374996 4.75042236875000 
 C -4.49666211250000 4.61424390937500 4.81680536875000 
 N -2.22270711250000 1.09093690937500 4.65069636875000 
 N -2.31115111250000 5.38673890937500 4.71616936875000 
 N -4.45162011250000 0.574662909374997 3.41800636875000 
 N -4.35880211250000 4.54602590937500 3.49198536875000 
 N -5.13858811250000 0.708991909374996 7.27039736875000 
 N -4.99039011250000 4.45771690937500 7.37216036875000 
 S -5.87880411250000 0.567597909374996 5.76021136875000 
 S -5.77127311250000 4.19879190937500 5.91228036875000 
 S -2.83212411250000 0.969099909374997 3.13218136875000 
 S -2.72962411250000 5.02523090937500 3.19612336875000 
 S -3.45558811250000 0.849162909374996 7.21203236875000 
 S -3.52586211250000 5.23858890937500 7.20653436875000 
