16

 C -3.12176679062500 1.50500590000000 5.70781902812500 
 C -3.00594479062500 4.61443590000000 5.47622602812500 
 C -4.40620079062500 1.13510990000000 5.08263102812500 
 C -4.23942579062500 4.20110590000000 4.86762502812500 
 N -2.11203179062500 1.62385790000000 4.85493202812500 
 N -2.01049379062500 4.79830890000000 4.56459102812500 
 N -4.23699979062500 0.854738900000001 3.79866002812500 
 N -4.12299379062500 3.91172790000000 3.58032202812500 
 N -4.80759979062500 1.41916290000000 7.63006602812500 
 N -4.89439979062500 4.48540490000000 7.34789302812500 
 S -5.66706979062500 1.11863890000000 6.23758802812500 
 S -5.59237679062500 4.14251490000000 5.89189002812500 
 S -2.62250479062500 1.19090190000000 3.38760302812500 
 S -2.61707179062500 4.30457490000000 3.08277202812500 
 S -3.20408079062500 1.70480990000000 7.42581102812500 
 S -3.26756579062500 4.62522690000000 7.21713102812500 
