16

 C -2.94272915625000 1.60702656250000 5.44897244375000 
 C -3.15517315625000 5.16530856250000 5.55066544375000 
 C -4.19636015625000 1.49129656250000 4.79160744375000 
 C -4.32393515625000 4.64714356250000 4.86799644375000 
 N -1.91534315625000 1.53853556250000 4.63223644375000 
 N -2.08930415625000 5.37523256250000 4.74471744375000 
 N -4.05890015625000 1.31707256250000 3.47558344375000 
 N -4.12994815625000 4.32714956250000 3.58902744375000 
 N -4.66461715625000 1.66411856250000 7.31477844375000 
 N -4.97428715625000 5.05561556250000 7.33166644375000 
 S -5.51412415625000 1.40508656250000 5.93456044375000 
 S -5.73175615625000 4.67791256250000 5.88838944375000 
 S -2.43908115625000 1.22911656250000 3.06138244375000 
 S -2.59962315625000 4.76303256250000 3.19842344375000 
 S -3.03066215625000 1.89980756250000 7.13458944375000 
 S -3.35791115625000 5.28191056250000 7.24899644375000 
