16

 C -3.25099473125000 1.38246435625000 5.56634685937500 
 C -3.20199473125000 5.00339335625000 5.68205485937500 
 C -4.46558273125000 0.864325356249998 4.99221685937500 
 C -4.35379273125000 4.40010635625000 5.09906285937500 
 N -2.23714973125000 1.38225935625000 4.69252885937500 
 N -2.14860073125000 5.08585935625000 4.83483985937500 
 N -4.38918773125000 0.418744356249999 3.74183085937500 
 N -4.25682273125000 4.13529735625000 3.79935785937500 
 N -4.89283973125000 1.23487735625000 7.56974185937500 
 N -4.90096573125000 4.82483435625000 7.49509985937500 
 S -5.75272273125000 0.868501356249999 6.19012085937500 
 S -5.62511273125000 4.28758735625000 6.14448185937500 
 S -2.87626073125000 0.789707356249998 3.22452985937500 
 S -2.74671373125000 4.60585635625000 3.36989285937500 
 S -3.22762973125000 1.76204435625000 7.30170885937500 
 S -3.33763673125000 5.19550535625000 7.38011485937500 
