16

 C -3.06912718125000 1.25509938750000 5.62369170312500 
 C -3.12690518125000 5.03553138750000 5.49668670312500 
 C -4.25896018125000 0.794863387500000 5.04948170312500 
 C -4.27002618125000 4.43114138750000 4.91226970312500 
 N -2.03817118125000 1.29455238750000 4.81146670312500 
 N -2.04058318125000 5.11858338750000 4.73483870312500 
 N -4.14831918125000 0.413399387499999 3.80163070312500 
 N -4.00865018125000 4.03738438750000 3.65669570312500 
 N -4.80500118125000 1.12504038750000 7.47865170312500 
 N -4.86324818125000 4.89334338750000 7.38845970312500 
 S -5.58350918125000 0.695019387499999 6.10117670312500 
 S -5.59545318125000 4.29844238750000 6.03922070312500 
 S -2.56212618125000 0.723127387499999 3.38271370312500 
 S -2.45742318125000 4.47397238750000 3.27828670312500 
 S -3.21790518125000 1.64104838750000 7.35568370312500 
 S -3.31204718125000 5.35317838750000 7.16848870312500 
