16

 C -2.90369219687500 1.87669807187500 5.61693421875000 
 C -3.18895919687500 5.24434507187500 5.67344921875000 
 C -4.16068019687500 1.64394807187500 5.03038221875000 
 C -4.45274819687500 4.92407307187500 5.07614321875000 
 N -1.91634419687500 1.88221007187500 4.72420621875000 
 N -2.14211819687500 5.35330907187500 4.82929221875000 
 N -4.12886619687500 1.35782707187500 3.74420521875000 
 N -4.31826519687500 4.58266007187500 3.79841721875000 
 N -4.43523819687500 1.44082207187500 7.45953921875000 
 N -4.86393819687500 5.15399007187500 7.60622421875000 
 S -5.42221819687500 1.51205607187500 6.15660821875000 
 S -5.70335919687500 4.69584307187500 6.28078621875000 
 S -2.54879919687500 1.58616307187500 3.25443821875000 
 S -2.77482919687500 4.91453507187500 3.35048421875000 
 S -2.85100519687500 1.95126307187500 7.33279021875000 
 S -3.27148419687500 5.42732807187500 7.37263021875000 
