16

 C -2.84910488125000 1.76297939375000 5.37726639687500 
 C -3.15388188125000 5.19440339375000 5.47425039687500 
 C -4.14266188125000 1.49359539375000 4.75472739687500 
 C -4.32684588125000 4.78039039375000 4.81419239687500 
 N -1.78189688125000 1.68078139375000 4.54502939687500 
 N -2.05340188125000 5.29032339375000 4.70749839687500 
 N -4.10817288125000 1.32641539375000 3.42670739687500 
 N -4.12651288125000 4.44551739375000 3.55611339687500 
 N -4.65005488125000 1.70711239375000 7.34093639687500 
 N -4.97681088125000 4.95378739375000 7.32528639687500 
 S -5.47222188125000 1.37954739375000 5.90647939687500 
 S -5.70270088125000 4.66401539375000 5.89190739687500 
 S -2.44744688125000 1.35905739375000 3.07974039687500 
 S -2.50635188125000 4.83446039375000 3.23718639687500 
 S -3.03005388125000 2.06069139375000 7.14016639687500 
 S -3.34316988125000 5.26592939375000 7.18056839687500 
