16

 C -3.23394198750000 1.08565216875000 5.44311562500000 
 C -2.83449498750000 5.12608816875000 5.44451162500000 
 C -4.50748598750000 0.661404168749998 4.93413362500000 
 C -3.98073598750000 4.74842516875000 4.67260462500000 
 N -2.23550598750000 1.18875716875000 4.54653962500000 
 N -1.73183498750000 5.33935816875000 4.73192662500000 
 N -4.55263798750000 0.462280168749998 3.58720862500000 
 N -3.81632598750000 4.85572716875000 3.35526062500000 
 N -4.80424198750000 1.34405016875000 7.44694662500000 
 N -4.76409598750000 5.06180216875000 7.18626262500000 
 S -5.70127998750000 0.640457168749998 6.23249362500000 
 S -5.39136198750000 4.66215916875000 5.70653062500000 
 S -3.00149598750000 0.823488168749998 3.10786262500000 
 S -2.16943598750000 5.16548516875000 3.12064062500000 
 S -3.13729098750000 1.35793816875000 7.17709862500000 
 S -3.10047998750000 5.16242516875000 7.18978362500000 
