16

 C -3.38463797187500 1.50484517500000 5.50140839375000 
 C -3.29714297187500 5.10283017500000 5.36077839375000 
 C -4.53920897187500 1.03302917500000 4.84893039375000 
 C -4.50937597187500 4.62500317500000 4.75050339375000 
 N -2.33053497187500 1.60375317500000 4.71653439375000 
 N -2.34193697187500 5.41146217500000 4.47486839375000 
 N -4.39461397187500 0.881434175000000 3.53599839375000 
 N -4.43153897187500 4.40274817500000 3.42576939375000 
 N -5.07985097187500 1.22716717500000 7.36762239375000 
 N -4.99277797187500 4.65579117500000 7.28373039375000 
 S -5.86687497187500 0.726227175000000 5.96281839375000 
 S -5.78548897187500 4.12907117500000 5.85405139375000 
 S -2.78679797187500 1.18523717500000 3.18332239375000 
 S -2.90967497187500 4.85578917500000 3.02020839375000 
 S -3.43622197187500 1.46857617500000 7.23648539375000 
 S -3.43688997187500 5.17658817500000 7.09870639375000 
