16

 C -3.11110630625000 1.37387818125000 5.40750628437500 
 C -3.41796330625000 5.27987418125000 5.35740328437500 
 C -4.38359430625000 1.03056718125000 4.81337828437500 
 C -4.61133530625000 4.58802018125000 4.79318328437500 
 N -2.18459230625000 1.49335418125000 4.48382828437500 
 N -2.48617730625000 5.57104218125000 4.48028128437500 
 N -4.41047630625000 0.773777181250003 3.53451128437500 
 N -4.49675130625000 4.35321218125000 3.46808328437500 
 N -4.72376830625000 1.17592018125000 7.43686228437500 
 N -4.80627730625000 4.56009818125000 7.36979528437500 
 S -5.62525230625000 0.932661181250002 6.05598528437500 
 S -5.78550930625000 4.21650218125000 6.06867228437500 
 S -2.83013730625000 0.925145181250003 3.06718328437500 
 S -3.04773230625000 4.95489318125000 3.01101228437500 
 S -3.10125330625000 1.57531918125000 7.14219828437500 
 S -3.37882630625000 5.21582718125000 7.06942328437500 
