16

 C -2.92657440312500 1.61794856250000 5.55645434375000 
 C -3.02191640312500 5.30495056250000 5.52692734375000 
 C -4.13542940312500 1.04906556250000 4.99708234375000 
 C -4.27162040312500 4.95463656250000 4.91197734375000 
 N -1.92572640312500 1.71093456250000 4.68360234375000 
 N -1.96877240312500 5.32465356250000 4.69689234375000 
 N -4.04914640312500 0.869353562499999 3.69357134375000 
 N -4.21495240312500 4.87328756250000 3.58676634375000 
 N -4.79051240312500 1.47465956250000 7.39299634375000 
 N -4.85250140312500 5.28869956250000 7.40538634375000 
 S -5.49835940312500 0.852760562499999 5.98999634375000 
 S -5.63312440312500 4.80826156250000 5.99199834375000 
 S -2.49886140312500 1.35860856250000 3.15510234375000 
 S -2.57766240312500 5.00914056250000 3.18074234375000 
 S -3.23683640312500 1.94689856250000 7.28713634375000 
 S -3.22662040312500 5.63684256250000 7.17847434375000 
