16

 C -3.11268289687500 1.47032398437500 5.60873890000000 
 C -3.33895989687500 5.03781898437500 5.26274790000000 
 C -4.26926889687500 0.994903984374997 4.84727890000000 
 C -4.44222189687500 4.36551098437500 4.64557590000000 
 N -2.04084989687500 1.64076098437500 4.88736690000000 
 N -2.25068189687500 5.26304598437500 4.51773190000000 
 N -3.97459489687500 0.804253984374998 3.58611790000000 
 N -4.11379289687500 3.94937298437500 3.43367790000000 
 N -5.06285689687500 1.22666198437500 7.27056090000000 
 N -5.29477389687500 5.35741498437500 6.86887090000000 
 S -5.71190589687500 0.985508984374997 5.79558690000000 
 S -5.91852989687500 4.44570498437500 5.57415890000000 
 S -2.35303989687500 1.18899698437500 3.28380390000000 
 S -2.56985389687500 4.43150498437500 3.11959190000000 
 S -3.50758889687500 1.65105198437500 7.26562390000000 
 S -3.63412089687500 5.60085298437500 6.86279790000000 
