16

 C -3.73764963125000 1.23712064062500 5.76240432500000 
 C -3.08503263125000 5.06857164062500 5.34036932500000 
 C -4.77065963125000 0.713289640625000 4.97343032500000 
 C -4.31750863125000 4.45640864062500 4.83546132500000 
 N -2.64757063125000 1.54343764062500 5.07245732500000 
 N -2.12709363125000 5.09256964062500 4.41574732500000 
 N -4.56349163125000 0.700642640624999 3.65107132500000 
 N -4.35454363125000 4.22511964062500 3.52892232500000 
 N -5.62452463125000 0.692731640624999 7.32381432500000 
 N -4.79978863125000 4.95709164062500 7.31560732500000 
 S -6.25297363125000 0.322603640624999 5.84229532500000 
 S -5.62369563125000 4.32446664062500 6.00845332500000 
 S -2.92216563125000 1.14054964062500 3.47922432500000 
 S -2.82516263125000 4.61813264062500 2.95992232500000 
 S -4.09696963125000 1.28409664062500 7.41247932500000 
 S -3.23222563125000 5.50807964062500 7.01894832500000 
