16

 C -3.29320653437500 1.41777382500000 5.65245482812500 
 C -3.57882653437500 5.23859882500000 5.51417182812500 
 C -4.50905853437500 0.906099825000000 4.99617182812500 
 C -4.69516053437500 4.65211082500000 4.87540682812500 
 N -2.36857953437500 1.81688282500000 4.83733382812500 
 N -2.54907353437500 5.60508782500000 4.72587982812500 
 N -4.37350953437500 0.808983824999999 3.66771182812500 
 N -4.44028653437500 4.42229282500000 3.58448482812500 
 N -4.89742253437500 1.01743882500000 7.56270782812500 
 N -5.29293853437500 4.89061382500000 7.32590282812500 
 S -5.72713753437500 0.574147825000000 6.14041382812500 
 S -5.91532653437500 4.17150482500000 5.97997082812500 
 S -2.87838053437500 1.34230982500000 3.31290982812500 
 S -2.96493553437500 5.11581782500000 3.24110382812500 
 S -3.27530853437500 1.55574082500000 7.38756782812500 
 S -3.79080853437500 5.53059982500000 7.23861382812500 
