16

 C -2.88241955937500 1.33975716562500 5.81539950937500 
 C -3.24693355937500 5.01621016562500 5.66930350937500 
 C -4.18064855937500 1.28781716562500 5.17935950937500 
 C -4.50929755937500 4.83793416562500 4.98808850937500 
 N -1.84138955937500 1.42414416562500 5.01600950937500 
 N -2.17876755937500 5.05891816562500 4.85758350937500 
 N -4.05503755937500 1.25242516562500 3.87750450937500 
 N -4.45264255937500 4.76882216562500 3.66041150937500 
 N -4.60229555937500 1.42248816562500 7.64961950937500 
 N -5.08042655937500 4.82792216562500 7.48592050937500 
 S -5.45920755937500 1.25700716562500 6.27580550937500 
 S -5.85418755937500 4.60848916562500 5.99603150937500 
 S -2.46771955937500 1.31792216562500 3.44405150937500 
 S -2.87799755937500 4.88883216562500 3.26905150937500 
 S -2.94558455937500 1.55880916562500 7.47765750937500 
 S -3.42620155937500 5.10591016562500 7.44135550937500 
