16

 C -3.09371709375000 1.02015012187500 5.46067019062500 
 C -3.10583009375000 4.91098012187500 5.52424719062500 
 C -4.25992609375000 0.657433121875001 4.72172819062500 
 C -4.39049109375000 4.66402912187500 4.92065219062500 
 N -1.99384109375000 1.08658312187500 4.72802919062500 
 N -2.09651809375000 4.95696112187500 4.64688319062500 
 N -4.04471909375000 0.562706121875001 3.42570619062500 
 N -4.29072909375000 4.40650912187500 3.59630119062500 
 N -4.90635609375000 0.740371121875000 7.21801819062500 
 N -4.83256809375000 5.03522412187500 7.36394919062500 
 S -5.66444409375000 0.383033121875001 5.79747319062500 
 S -5.72850609375000 5.00485212187500 5.96308119062500 
 S -2.46855809375000 0.915733121875001 3.16772319062500 
 S -2.69374109375000 4.56962412187500 3.10426619062500 
 S -3.31292309375000 1.23081012187500 7.12381719062500 
 S -3.16720609375000 5.08944212187500 7.27239719062500 
