16

 C -2.80508603750000 1.48130411875000 5.45578154375000 
 C -3.40466003750000 5.12868011875000 5.26946454375000 
 C -4.06527103750000 1.09624611875000 4.75506854375000 
 C -4.53616403750000 4.46218411875000 4.63315554375000 
 N -1.78553203750000 1.48644211875000 4.60047054375000 
 N -2.38286403750000 5.22746211875000 4.44547454375000 
 N -3.91941203750000 0.801998118750004 3.42493354375000 
 N -4.29222403750000 3.91936911875000 3.43946454375000 
 N -4.74094403750000 1.38507811875000 7.19679654375000 
 N -5.31607603750000 5.15294011875000 7.06863954375000 
 S -5.50364503750000 0.855453118750003 5.76949054375000 
 S -5.78142903750000 4.22537811875000 5.77247654375000 
 S -2.36583203750000 1.20540111875000 3.08355854375000 
 S -2.74981203750000 4.42179411875000 3.07723354375000 
 S -3.12894303750000 1.82717511875000 7.14113754375000 
 S -3.81369503750000 5.91072211875000 6.78383654375000 
