16

 C -3.09616345625000 1.46632131250000 5.52227666250000 
 C -2.97207045625000 4.82272131250000 5.34092866250000 
 C -4.29411245625000 1.03331531250000 4.88123066250000 
 C -4.26656345625000 4.73852931250000 4.75384666250000 
 N -2.08461945625000 1.60216731250000 4.70157466250000 
 N -1.92256245625000 4.78195031250000 4.47601466250000 
 N -4.16952245625000 0.789306312499998 3.54145266250000 
 N -4.18521145625000 4.48528931250000 3.42801466250000 
 N -4.88788645625000 1.34751431250000 7.41683466250000 
 N -4.67952845625000 5.21399131250000 7.21609566250000 
 S -5.59750345625000 0.874120312499998 5.99612266250000 
 S -5.57533045625000 4.93431331250000 5.87982966250000 
 S -2.60697845625000 1.09837731250000 3.14093866250000 
 S -2.60465745625000 4.48226131250000 2.96641366250000 
 S -3.25570945625000 1.86317231250000 7.23509566250000 
 S -3.05667345625000 5.31697631250000 7.04691466250000 
