16

 C -3.23377902812500 1.35439883437500 5.64908663437500 
 C -3.13980802812500 5.32060483437500 5.52559563437500 
 C -4.51945202812500 1.22540583437500 4.96408963437500 
 C -4.34479402812500 4.88882583437500 4.82222363437500 
 N -2.17270502812500 1.34440583437500 4.86417863437500 
 N -2.10437202812500 5.56693983437500 4.71901563437500 
 N -4.41570602812500 1.24378683437500 3.61646863437500 
 N -4.15022602812500 4.72693783437500 3.49494563437500 
 N -5.03572802812500 0.947045834375001 7.56748563437500 
 N -4.86924502812500 4.89875583437500 7.32363563437500 
 S -5.79202702812500 1.03444083437500 6.09881163437500 
 S -5.70871602812500 4.58362383437500 5.88258963437500 
 S -2.76004502812500 1.35557883437500 3.31918163437500 
 S -2.57787002812500 5.10910283437500 3.16850463437500 
 S -3.40503502812500 1.37946983437500 7.42748263437500 
 S -3.34670602812500 5.55025483437500 7.25913663437500 
