16

 C -2.90502978750000 1.56335034687500 5.38230618125000 
 C -3.00452178750000 5.15125834687500 5.68574918125000 
 C -4.18212378750000 1.24132034687500 4.79940418125000 
 C -4.17352478750000 4.67299934687500 4.99528418125000 
 N -1.88217078750000 1.53090734687500 4.51050118125000 
 N -1.95946078750000 5.40391934687500 4.87992918125000 
 N -4.13475778750000 0.979610346875003 3.48528118125000 
 N -4.01050378750000 4.47000134687500 3.70703018125000 
 N -4.50677578750000 1.25498234687500 7.42136518125000 
 N -4.89348078750000 4.86120034687500 7.47222218125000 
 S -5.38893478750000 1.09833134687500 6.04184618125000 
 S -5.53352478750000 4.36334734687500 6.02186818125000 
 S -2.61522278750000 1.31927634687500 3.02241318125000 
 S -2.50635878750000 5.06260334687500 3.31471318125000 
 S -2.89712678750000 1.60927934687500 7.18356418125000 
 S -3.31022078750000 5.37553934687500 7.41735718125000 
