16

 C -3.10864632187500 0.897997243750001 5.61208361875000 
 C -3.27725032187500 4.84723324375000 5.25313161875000 
 C -4.37369632187500 0.737247243750001 4.90639561875000 
 C -4.46081132187500 4.27411124375000 4.63324361875000 
 N -2.08687932187500 1.18980724375000 4.77360361875000 
 N -2.26905632187500 5.09641724375000 4.42490161875000 
 N -4.31785332187500 0.765799243750001 3.55518361875000 
 N -4.30827632187500 4.12266124375000 3.32977561875000 
 N -4.94647132187500 0.739959243750000 7.45084161875000 
 N -5.07983332187500 4.70599524375000 7.17061861875000 
 S -5.69433132187500 0.491711243750001 5.98082661875000 
 S -5.82723732187500 4.06995324375000 5.73896061875000 
 S -2.70796232187500 0.971436243750000 3.27754561875000 
 S -2.78438632187500 4.68039024375000 2.95112261875000 
 S -3.25405932187500 0.870509243750001 7.36266761875000 
 S -3.53857132187500 5.33372124375000 6.87907361875000 
