16

 C -3.10882312187500 1.17605724062500 5.76259556562500 
 C -3.22455612187500 5.01673724062500 5.52871856562500 
 C -4.35309412187500 0.882928240625000 5.19659856562500 
 C -4.46349412187500 4.56110124062500 4.95642256562500 
 N -2.10095012187500 1.17271424062500 4.92440256562500 
 N -2.19028712187500 5.14530924062500 4.72280356562500 
 N -4.32252112187500 0.593410240624999 3.90152056562500 
 N -4.39274712187500 4.52510124062500 3.61788556562500 
 N -4.74031812187500 1.46996524062500 7.59640056562500 
 N -4.81457512187500 5.00940324062500 7.49857256562500 
 S -5.63917512187500 1.09367824062500 6.29442956562500 
 S -5.73867612187500 4.51856224062500 6.12358356562500 
 S -2.71331912187500 0.718165240625000 3.52799956562500 
 S -2.80317412187500 4.87375824062500 3.20681956562500 
 S -3.14169012187500 1.76330724062500 7.37734456562500 
 S -3.20027212187500 5.45362824062500 7.26152056562500 
