16

 C -2.95981166250000 1.19033576562500 5.53812681562500 
 C -2.94713666250000 5.09588876562500 5.66641681562500 
 C -4.12308266250000 0.690403765625000 4.84441181562500 
 C -4.13353766250000 4.47076276562500 5.09935581562500 
 N -1.86405166250000 1.39771076562500 4.78949881562500 
 N -1.98341966250000 5.34302876562500 4.78817081562500 
 N -3.91433566250000 0.341121765625000 3.56545181562500 
 N -4.03898066250000 4.11166376562500 3.84690081562500 
 N -4.86524466250000 1.35157176562500 7.25865881562500 
 N -4.71954766250000 4.82522276562500 7.54262981562500 
 S -5.57299066250000 0.628310765625000 5.93095181562500 
 S -5.46763066250000 4.37226076562500 6.11424681562500 
 S -2.32230966250000 0.794686765624999 3.31870181562500 
 S -2.57370866250000 4.75586376562500 3.35154381562500 
 S -3.24798166250000 1.62587776562500 7.23808281562500 
 S -3.15612166250000 5.36359976562500 7.36146581562500 
