16

 C -2.86729325625000 1.23209488750000 5.54273320937500 
 C -2.89074225625000 5.12933188750000 5.66114820937500 
 C -4.11784325625000 0.880427887499999 4.88237820937500 
 C -4.06262525625000 4.57920888750000 5.02807220937500 
 N -1.88986825625000 1.45980188750000 4.68696620937500 
 N -1.95895425625000 5.47719888750000 4.78009220937500 
 N -4.00088025625000 0.642922887499999 3.58554120937500 
 N -3.96043625625000 4.31479088750000 3.72225620937500 
 N -4.80602225625000 0.998880887499999 7.30523620937500 
 N -4.68403925625000 4.63486788750000 7.47814020937500 
 S -5.52414725625000 0.696471887499999 5.86950720937500 
 S -5.46969925625000 4.34378988750000 6.02936420937500 
 S -2.34615925625000 0.849458887499999 3.19384120937500 
 S -2.47814225625000 4.86076088750000 3.30282520937500 
 S -3.18307825625000 1.31104388750000 7.28985920937500 
 S -3.21290825625000 5.37782888750000 7.36268620937500 
