16

 C -3.50737443437500 1.78208205312501 5.55783298750000 
 C -2.91488343437500 5.16662305312501 5.57333698750000 
 C -4.68254443437500 1.27348305312501 4.92090298750000 
 C -4.21993643437500 4.93393305312501 5.05210698750000 
 N -2.47029843437500 2.04934505312501 4.79304198750000 
 N -1.97021143437500 5.22644105312501 4.64526898750000 
 N -4.44445143437500 1.05662805312501 3.64356898750000 
 N -4.24732443437500 4.83445905312501 3.73263598750000 
 N -5.18823743437500 1.36601605312500 7.45375298750000 
 N -4.68764743437500 4.97333305312501 7.53892098750000 
 S -6.00054643437500 1.13952905312501 6.03916098750000 
 S -5.56761543437500 4.90904305312501 6.11034298750000 
 S -2.84058543437500 1.42940605312501 3.31965898750000 
 S -2.72326543437500 4.93694205312501 3.14126098750000 
 S -3.57446343437500 1.80765605312501 7.25461998750000 
 S -2.96771943437500 5.28922205312501 7.32761198750000 
