16

 C -2.99890653125000 1.32034489375000 5.64028516250000 
 C -3.20265553125000 5.26927289375000 5.33808616250000 
 C -4.18096853125000 0.733850893750000 5.02367516250000 
 C -4.17054053125000 4.27374989375000 4.98028216250000 
 N -1.89511753125000 1.46296489375000 4.88409316250000 
 N -2.16432353125000 5.46123989375000 4.50252816250000 
 N -4.00112553125000 0.540740893750000 3.69958016250000 
 N -3.99468153125000 3.91117589375000 3.71102616250000 
 N -4.81963453125000 0.995457893749999 7.47332416250000 
 N -4.91754953125000 5.16670389375000 7.26665716250000 
 S -5.53945153125000 0.470170893750000 6.06086416250000 
 S -5.49469453125000 4.09350489375000 6.06039416250000 
 S -2.44222453125000 0.964489893750000 3.39191216250000 
 S -2.52090853125000 4.51109489375000 3.22381316250000 
 S -3.29945053125000 1.57229789375000 7.27921916250000 
 S -3.41334853125000 5.93199589375000 6.94614516250000 
