16

 C -3.60075874062500 1.39499243437500 5.82282319687500 
 C -3.29264474062500 5.17902743437500 5.32171519687500 
 C -4.69160974062500 0.866086434374997 4.96832419687500 
 C -4.47335874062500 4.54984743437500 4.78751319687500 
 N -2.46486474062500 1.52617043437500 5.17214819687500 
 N -2.27706474062500 5.28612843437500 4.47835419687500 
 N -4.32781474062500 0.639172434374998 3.72952019687500 
 N -4.40661574062500 4.23890443437500 3.48133119687500 
 N -5.57351474062500 0.813581434374997 7.29917919687500 
 N -4.81345474062500 4.84213143437500 7.32764119687500 
 S -6.14959974062500 0.504532434374998 5.78400119687500 
 S -5.69281674062500 4.44551543437500 5.97898619687500 
 S -2.73132374062500 1.17337143437500 3.56217419687500 
 S -2.84603274062500 4.77320143437500 3.01071619687500 
 S -4.03258274062500 1.39696143437500 7.48691519687500 
 S -3.26190874062500 5.39666943437500 7.06388519687500 
