16

 C -3.25234232500000 1.45660713125000 5.31506381875000 
 C -3.01802432500000 5.00769913125000 5.40678281875000 
 C -4.44235032500000 0.967468131249999 4.65765081875000 
 C -4.34435832500000 5.06041013125000 4.78498481875000 
 N -2.21860232500000 1.73605613125000 4.52152781875000 
 N -1.98548332500000 5.13248613125000 4.58414681875000 
 N -4.35069332500000 0.885689131249999 3.33009481875000 
 N -4.23054432500000 5.10290013125000 3.49427281875000 
 N -4.98601332500000 1.24166413125000 7.19436281875000 
 N -4.89789032500000 4.83963213125000 7.24391181875000 
 S -5.72895632500000 0.767313131249999 5.74690081875000 
 S -5.75974632500000 4.83463913125000 5.75658981875000 
 S -2.82713432500000 1.36634213125000 2.95243781875000 
 S -2.65692632500000 5.20301513125000 3.03696981875000 
 S -3.40472432500000 1.56386713125000 7.04746781875000 
 S -3.15225932500000 4.88541113125000 7.10511681875000 
