16

 C -3.23597490937500 0.902201628125002 5.45726736875000 
 C -3.34576590937500 5.02892462812500 5.53563436875000 
 C -4.52627690937500 0.685956628125002 4.78349636875000 
 C -4.51631790937500 4.55864762812500 4.85653036875000 
 N -2.22226590937500 1.08261762812500 4.63434736875000 
 N -2.25547390937500 5.32420462812500 4.76556336875000 
 N -4.43008890937500 0.691812628125002 3.46112336875000 
 N -4.33520490937500 4.41547762812500 3.53797436875000 
 N -5.04009090937500 0.643629628125002 7.27024036875000 
 N -4.98161190937500 4.51633462812500 7.42312736875000 
 S -5.89572390937500 0.464342628125002 5.87131736875000 
 S -5.87114990937500 4.37302062812500 6.00767436875000 
 S -2.84844190937500 0.981321628125002 3.07164236875000 
 S -2.78979190937500 4.93253162812500 3.24962536875000 
 S -3.41762790937500 0.803627628125002 7.15769636875000 
 S -3.38618590937500 4.95841662812500 7.28344836875000 
