16

 C -3.52335561250000 1.31516335000000 5.50475635312500 
 C -3.01275661250000 5.17897935000000 5.41419735312500 
 C -4.54287661250000 0.596270349999998 4.74939135312500 
 C -4.20713761250000 4.83216435000000 4.72756835312500 
 N -2.43621061250000 1.58667335000000 4.82175535312500 
 N -1.92579961250000 5.03241435000000 4.63246335312500 
 N -4.16748661250000 0.319795349999998 3.48228535312500 
 N -4.07370261250000 4.44187135000000 3.43311335312500 
 N -5.38406561250000 1.02815035000000 7.30125635312500 
 N -5.01227561250000 5.33044135000000 7.00848535312500 
 S -5.89652461250000 0.196040349999998 5.87158735312500 
 S -5.70861861250000 4.85778335000000 5.56401235312500 
 S -2.68672061250000 1.05927235000000 3.31901335312500 
 S -2.43903761250000 4.53998935000000 3.17281235312500 
 S -3.86466661250000 1.68179035000000 7.13538335312500 
 S -3.38316361250000 5.51778535000000 7.14491135312500 
