16

 C -3.17727748437500 1.68207905937499 5.67195487187500 
 C -2.95535548437500 5.12865505937499 5.44731887187500 
 C -4.40028548437500 1.25252505937500 5.05617587187500 
 C -4.23377148437500 4.79303405937500 4.78870087187500 
 N -2.15396248437500 1.79007505937499 4.80704287187500 
 N -1.88505148437500 5.34975205937500 4.64884387187500 
 N -4.40726748437500 1.07489605937499 3.74138887187500 
 N -4.08907848437500 4.77407505937499 3.45726987187500 
 N -5.02481048437500 1.39891205937499 7.48557287187500 
 N -4.65447048437500 5.09193405937499 7.43278887187500 
 S -5.78060148437500 1.05260005937499 6.04348987187500 
 S -5.57086848437500 4.63754905937499 6.02061987187500 
 S -2.84853948437500 1.40432305937499 3.25857787187500 
 S -2.48262748437500 5.07851705937499 3.10997187187500 
 S -3.47450448437500 1.87475805937499 7.42308487187500 
 S -2.96231148437500 5.28308805937499 7.16211187187500 
