16

 C -3.34713452812500 1.35449809687500 5.66986197812500 
 C -3.33874652812500 5.12444109687500 5.25771497812500 
 C -4.51860252812500 0.994824096874999 4.98913697812500 
 C -4.46400852812500 4.48042809687500 4.61572297812500 
 N -2.24632352812500 1.51286009687500 4.88139897812500 
 N -2.29466452812500 5.24736309687500 4.43854697812500 
 N -4.42870652812500 0.854064096874999 3.64292697812500 
 N -4.36247652812500 4.34419809687500 3.28179897812500 
 N -5.20773652812500 0.940963096874999 7.47298497812500 
 N -4.97556652812500 4.70442609687500 7.16309997812500 
 S -5.94983552812500 0.762434096874999 5.98946497812500 
 S -5.82374452812500 4.36606309687500 5.75925097812500 
 S -2.86368852812500 1.19271209687500 3.34660797812500 
 S -2.80824252812500 4.88928409687500 2.92073597812500 
 S -3.62889052812500 1.48247009687500 7.41291297812500 
 S -3.48094352812500 5.31801009687500 6.96123397812500 
