16

 C -3.01953575000000 1.67474428437500 5.71113811250000 
 C -3.08633175000000 5.41186828437500 5.69317311250000 
 C -4.13784975000000 0.970866284374997 5.04106011250000 
 C -4.31590675000000 4.97784428437500 5.07851211250000 
 N -1.97710175000000 1.90185928437500 4.91147511250000 
 N -2.04096575000000 5.47152728437500 4.86678111250000 
 N -3.88189675000000 0.509969284374997 3.81705411250000 
 N -4.20482275000000 4.59725528437500 3.81799611250000 
 N -4.78520075000000 1.39009528437500 7.50237711250000 
 N -4.91007975000000 5.27749128437500 7.58288411250000 
 S -5.48927775000000 0.779756284374997 6.09538111250000 
 S -5.67429375000000 4.88131128437500 6.12484511250000 
 S -2.41879975000000 1.15148628437500 3.44441011250000 
 S -2.67024275000000 4.97763928437500 3.34358911250000 
 S -3.26264375000000 2.08183828437500 7.35870011250000 
 S -3.27479475000000 5.59254528437500 7.43831511250000 
