16

 C -3.19980010625000 1.11629791875000 5.56295041562500 
 C -3.29838410625000 5.20864191875000 5.69255141562500 
 C -4.44292810625000 0.844112918750000 4.89296141562500 
 C -4.32216710625000 4.44008891875000 5.02524141562500 
 N -2.09525410625000 1.11558791875000 4.80733741562500 
 N -2.32100710625000 5.55672791875000 4.85426141562500 
 N -4.31690510625000 0.715158918750000 3.56649041562500 
 N -4.20956610625000 4.36993791875000 3.67595041562500 
 N -4.99875710625000 0.573371918750000 7.44858141562500 
 N -4.94453410625000 4.49737391875000 7.58952841562500 
 S -5.81537110625000 0.582370918750000 6.04959841562500 
 S -5.62623710625000 4.07445491875000 6.09612041562500 
 S -2.70715410625000 0.931274918750000 3.26783441562500 
 S -2.74103010625000 5.06311491875000 3.33525041562500 
 S -3.41035010625000 1.05096991875000 7.29769141562500 
 S -3.49960510625000 5.31988491875000 7.38334841562500 
