16

 C -3.39433811562500 1.57971616250000 5.44339977187500 
 C -3.05814311562500 5.59382416250000 5.62514577187500 
 C -4.49970311562500 1.01131316250000 4.77331677187500 
 C -4.22201311562500 5.00032816250000 5.01864577187500 
 N -2.29304011562500 1.81401416250000 4.68340877187500 
 N -2.13935111562500 6.04448016250000 4.75908277187500 
 N -4.22852911562500 0.574694162499998 3.50965577187500 
 N -4.06716911562500 4.73897816250000 3.69740477187500 
 N -5.17540611562500 1.16472516250000 7.28775377187500 
 N -4.82627811562500 5.11709616250000 7.49348577187500 
 S -5.91665111562500 0.754099162499998 5.83594277187500 
 S -5.56460611562500 4.56709016250000 6.08115077187500 
 S -2.68449111562500 1.00678316250000 3.25220877187500 
 S -2.63777011562500 5.54811416250000 3.25463677187500 
 S -3.59745011562500 1.69109916250000 7.14970677187500 
 S -3.22640011562500 5.66317916250000 7.32536277187500 
