16

 C -3.23515989375000 1.61196691250000 5.45135168750000 
 C -3.04428289375000 5.26750491250000 5.79453468750000 
 C -4.35144789375000 0.959338912499999 4.81248668750000 
 C -4.29665289375000 4.87786191250000 5.24327268750000 
 N -2.25642989375000 1.98650491250000 4.59045768750000 
 N -2.08405089375000 5.55837491250000 4.94602968750000 
 N -4.19698389375000 0.788521912499999 3.50483668750000 
 N -4.21796189375000 4.78653791250000 3.89591768750000 
 N -4.99068489375000 0.943206912500000 7.27549968750000 
 N -4.56927789375000 5.05595291250000 7.79529068750000 
 S -5.55777289375000 0.329689912499999 5.81214868750000 
 S -5.55261689375000 4.68765891250000 6.50400468750000 
 S -2.71937089375000 1.43413191250000 3.06888368750000 
 S -2.67729789375000 5.18534691250000 3.43089468750000 
 S -3.41363689375000 1.62113791250000 7.19529868750000 
 S -3.02038289375000 5.44407691250000 7.48860668750000 
