16

 C -3.23871201250000 0.983132303125000 5.62007044062500 
 C -2.92287701250000 5.09838530312500 5.58570144062500 
 C -4.38822801250000 0.477255303125000 4.89411644062500 
 C -4.11337001250000 4.58267830312500 4.95665144062500 
 N -2.16430801250000 1.14304630312500 4.85377344062500 
 N -1.86539201250000 5.25457430312500 4.76888444062500 
 N -4.22929701250000 0.492291303125000 3.57798944062500 
 N -3.98638501250000 4.50997630312500 3.64217644062500 
 N -5.21026301250000 1.02557430312500 7.34434644062500 
 N -4.72173601250000 4.78812930312500 7.43069544062500 
 S -5.81649401250000 0.344749303125001 5.96173944062500 
 S -5.46214201250000 4.26828530312500 6.02001144062500 
 S -2.63154101250000 0.847947303125000 3.29818544062500 
 S -2.46410901250000 4.79826230312500 3.25401144062500 
 S -3.53345901250000 1.27087830312500 7.31291344062500 
 S -3.15810801250000 5.35259930312500 7.27718544062500 
