16

 C -2.94853080000000 1.29538483125000 5.67077458750000 
 C -2.92661780000000 5.02194183125000 5.41895358750000 
 C -4.18890780000000 0.892071831250002 5.04708258750000 
 C -4.15437780000000 4.35546583125000 4.95223258750000 
 N -1.92348780000000 1.44536383125000 4.84672058750000 
 N -1.98993280000000 5.23036183125000 4.49571458750000 
 N -4.10200680000000 0.694108831250002 3.77756758750000 
 N -3.98467080000000 3.89327683125000 3.73646058750000 
 N -4.78198680000000 1.02554583125000 7.47258858750000 
 N -4.78018580000000 5.16287483125000 7.26026658750000 
 S -5.53675380000000 0.799883831250002 6.08137858750000 
 S -5.43346580000000 4.16865483125000 6.04383958750000 
 S -2.56627780000000 0.976269831250002 3.34682558750000 
 S -2.51382280000000 4.32758583125000 3.16980658750000 
 S -3.21110980000000 1.55909683125000 7.33772858750000 
 S -3.13975680000000 5.60693283125000 7.08584458750000 
