16

 C -3.03345528437500 1.52012026875000 5.62591623125000 
 C -3.04253228437500 5.19383726875000 5.67381123125000 
 C -4.36167428437500 1.23154426875000 5.03943023125000 
 C -4.29128728437500 4.88799926875000 4.98648223125000 
 N -2.05724328437500 1.83971626875000 4.76906623125000 
 N -2.03560828437500 5.48826626875000 4.85284523125000 
 N -4.36814328437500 1.36646426875000 3.73430823125000 
 N -4.22720428437500 4.88224426875000 3.67990123125000 
 N -4.75702528437500 1.58430926875000 7.50060223125000 
 N -4.87969928437500 4.92998326875000 7.46728223125000 
 S -5.67315428437500 1.29129626875000 6.15934223125000 
 S -5.62224128437500 4.57556126875000 6.00009223125000 
 S -2.82729028437500 1.67504926875000 3.28123123125000 
 S -2.60555228437500 5.21060026875000 3.30780423125000 
 S -3.09893428437500 1.81419726875000 7.34228523125000 
 S -3.24510728437500 5.27975626875000 7.39894023125000 
