16

 C -3.19981306562500 1.29679963750000 5.36759172500000 
 C -2.85881406562500 5.30857763750000 5.64607972500000 
 C -4.38573206562500 0.798537637500003 4.66368272500000 
 C -4.18022306562500 5.04750863750000 5.13752872500000 
 N -2.12947706562500 1.63163563750000 4.62518672500000 
 N -1.95157506562500 5.30866663750000 4.65060972500000 
 N -4.17634306562500 0.719827637500002 3.34109672500000 
 N -4.30962906562500 4.92888863750000 3.86752672500000 
 N -4.83837606562500 0.804309637500003 7.21782772500000 
 N -4.60599106562500 4.88743763750000 7.61428772500000 
 S -5.65063206562500 0.252285637500002 5.82351472500000 
 S -5.52642806562500 4.87800163750000 6.18089072500000 
 S -2.60279406562500 1.45230663750000 3.07305672500000 
 S -2.80157006562500 5.05309063750000 3.21211072500000 
 S -3.38290306562500 1.55751563750000 7.00324072500000 
 S -2.97646506562500 5.45999363750000 7.43428772500000 
