16

 C -3.07162492187500 1.95424439375000 5.79652035625000 
 C -3.14848092187500 5.43440939375000 5.63046635625000 
 C -4.30549992187500 1.58772739375000 5.15088735625000 
 C -4.39916892187500 4.98230239375000 5.07128035625000 
 N -2.03519492187500 1.94935439375000 4.93997235625000 
 N -2.10919492187500 5.49911939375000 4.81082535625000 
 N -4.15799792187500 1.39678439375000 3.81665835625000 
 N -4.28083192187500 4.79782139375000 3.75307135625000 
 N -4.76618492187500 1.40347539375000 7.69179635625000 
 N -4.80609392187500 5.11929839375000 7.65226635625000 
 S -5.61643792187500 1.49575239375000 6.27688735625000 
 S -5.67388592187500 4.84492139375000 6.25717135625000 
 S -2.57935192187500 1.75813439375000 3.39792435625000 
 S -2.75640992187500 5.13217939375000 3.31279335625000 
 S -3.10735792187500 1.73729939375000 7.52913535625000 
 S -3.18781992187500 5.35657339375000 7.33952735625000 
