16

 C -3.23945820312500 1.44687322500000 5.38210599687500 
 C -3.33676620312500 5.27783122500000 5.41169399687500 
 C -4.40714720312500 0.797849224999998 4.91144999687500 
 C -4.49440220312500 4.70276822500000 4.76957399687500 
 N -2.32403820312500 1.70018422500000 4.47216899687500 
 N -2.36585020312500 5.61437422500000 4.56417999687500 
 N -4.40173220312500 0.430571224999999 3.62766099687500 
 N -4.44574220312500 4.65328422500000 3.43961599687500 
 N -4.72801220312500 1.15432722500000 7.45490799687500 
 N -5.05080120312500 4.71638022500000 7.21817899687500 
 S -5.60988720312500 0.507263224999999 6.19732999687500 
 S -5.68709420312500 4.12815522500000 5.80007999687500 
 S -2.87235720312500 1.02102422500000 3.09378699687500 
 S -2.88166420312500 5.18218322500000 3.02544699687500 
 S -3.35545920312500 1.96936822500000 7.01712899687500 
 S -3.65064020312500 5.53057422500000 7.10345399687500 
