16

 C -3.18416103750000 1.48469875312500 5.45394229375000 
 C -2.99035303750000 5.10826275312500 5.50021929375000 
 C -4.46347403750000 1.41325975312500 4.84736429375000 
 C -4.28335403750000 4.86283775312500 4.89094729375000 
 N -2.16676503750000 1.56203875312500 4.63662429375000 
 N -1.96780303750000 5.33468075312500 4.67151029375000 
 N -4.40626103750000 1.47120875312500 3.53006829375000 
 N -4.26525603750000 5.03273075312500 3.58699529375000 
 N -4.87288603750000 1.47128175312500 7.33266329375000 
 N -4.75164603750000 4.72920775312500 7.45822929375000 
 S -5.77241503750000 1.35608975312500 5.95481529375000 
 S -5.56860903750000 4.44963675312500 5.99635929375000 
 S -2.74291903750000 1.68331775312500 3.09530529375000 
 S -2.66079303750000 5.29203975312500 3.11979829375000 
 S -3.21198403750000 1.64720275312500 7.11909129375000 
 S -3.10234203750000 5.03538675312500 7.24230429375000 
