16

 C -3.03934066875000 1.51121034375000 5.34559094062500 
 C -3.21883366875000 5.42976234375000 5.85561694062500 
 C -4.24605866875000 0.996318343750002 4.69346794062500 
 C -4.37287766875000 4.92232134375000 5.17263194062500 
 N -1.99520166875000 1.61782734375000 4.55964794062500 
 N -2.11222666875000 5.58305034375000 5.12362594062500 
 N -4.06055266875000 0.710194343750002 3.41982094062500 
 N -4.16263166875000 4.66353234375000 3.89874094062500 
 N -4.86159566875000 1.39708734375000 7.17102294062500 
 N -5.11131366875000 5.13877934375000 7.66598294062500 
 S -5.52172766875000 0.728125343750002 5.79467894062500 
 S -5.82934766875000 4.67432934375000 6.17086994062500 
 S -2.46759766875000 1.05487434375000 3.01284194062500 
 S -2.61916766875000 5.03968234375000 3.53586294062500 
 S -3.24253366875000 1.84016834375000 7.01871394062500 
 S -3.46862766875000 5.49309234375000 7.61918694062500 
