16

 C -3.37284545937500 1.54839479687500 5.43339244687500 
 C -3.10835545937500 5.34858179687500 5.65947944687500 
 C -4.52747945937500 0.921342796874998 4.77671344687500 
 C -4.38361045937500 4.93372479687500 5.08542144687500 
 N -2.31049245937500 1.86336479687500 4.67189044687500 
 N -2.07905045937500 5.33865879687500 4.78875344687500 
 N -4.32106545937500 0.964468796874998 3.42536744687500 
 N -4.37305145937500 4.88815979687500 3.73785044687500 
 N -5.36521545937500 1.51214679687500 7.07297144687500 
 N -4.84560945937500 5.07633979687500 7.54667544687500 
 S -5.97560545937500 0.723028796874998 5.72361044687500 
 S -5.72546045937500 4.66310879687500 6.16519844687500 
 S -2.76338045937500 1.49712279687500 3.14244444687500 
 S -2.76860645937500 5.10639779687500 3.27108744687500 
 S -3.79764145937500 2.04206079687500 7.04951244687500 
 S -3.24555445937500 5.38780379687500 7.38022444687500 
