16

 C -3.17763121562500 0.840687050000001 5.70542672812500 
 C -3.02866521562500 5.08288005000000 5.44685272812500 
 C -4.40036021562500 0.569505050000001 4.90954872812500 
 C -4.16661021562500 4.62688205000000 4.73635672812500 
 N -2.08291121562500 1.12141405000000 4.93482872812500 
 N -1.97549021562500 5.27757705000000 4.64763372812500 
 N -4.21736521562500 0.514251050000001 3.58652872812500 
 N -3.98605021562500 4.31805005000000 3.45200772812500 
 N -5.11473921562500 0.730294050000001 7.33556572812500 
 N -4.80464021562500 4.79978205000000 7.25222572812500 
 S -5.85086321562500 0.323946050000001 5.82503072812500 
 S -5.46754121562500 4.25368805000000 5.81898472812500 
 S -2.62783621562500 0.936829050000001 3.39722372812500 
 S -2.39706721562500 4.75188505000000 3.17585672812500 
 S -3.46688921562500 0.981480050000001 7.37629272812500 
 S -3.15485021562500 5.17705505000000 7.17083372812500 
