16

 C -2.93621874375000 1.57369962500000 5.37940774062500 
 C -3.49894374375000 5.03208862500000 5.17488274062500 
 C -4.05490074375000 0.993195624999997 4.70830174062500 
 C -4.59684974375000 4.33155062500000 4.61497274062500 
 N -1.84278474375000 1.70259462500000 4.62858274062500 
 N -2.38579074375000 5.13404362500000 4.41415074062500 
 N -3.92091974375000 0.805967624999997 3.37046974062500 
 N -4.37021174375000 3.93067862500000 3.37047374062500 
 N -4.78264374375000 1.41044462500000 7.23829874062500 
 N -5.38850974375000 5.08755662500000 6.89069074062500 
 S -5.37876274375000 0.781181624999997 5.83592574062500 
 S -5.95170374375000 4.08674862500000 5.74311574062500 
 S -2.29672474375000 1.11379262500000 3.16167074062500 
 S -2.78511574375000 4.42021662500000 2.99799474062500 
 S -3.28847274375000 2.06920062500000 7.06981274062500 
 S -3.86162574375000 5.69980662500000 6.73268374062500 
