16

 C -3.11542438750000 1.52175578437500 5.67194138125000 
 C -3.00713638750000 4.60104778437500 5.45479338125000 
 C -4.38686838750000 1.09277478437500 5.05697138125000 
 C -4.20522738750000 4.15201578437500 4.84994438125000 
 N -2.07351238750000 1.58523578437500 4.84990438125000 
 N -2.04130838750000 4.81240678437500 4.54485138125000 
 N -4.27448938750000 0.833069784374997 3.73903638125000 
 N -4.13214838750000 3.85702678437500 3.55188238125000 
 N -4.85569338750000 1.37246978437500 7.66964338125000 
 N -4.86583538750000 4.48731378437500 7.31419038125000 
 S -5.66861638750000 1.07908078437500 6.26955838125000 
 S -5.58655938750000 4.12188778437500 5.86996638125000 
 S -2.65823438750000 1.16694678437500 3.40006938125000 
 S -2.59745438750000 4.28704678437500 3.10238838125000 
 S -3.22742738750000 1.68784278437500 7.42328538125000 
 S -3.25008138750000 4.65431578437500 7.18680438125000 
