16

 C -3.15579665312500 1.60124230000000 5.55953041875000 
 C -3.16306465312500 4.99033530000000 5.51308741875000 
 C -4.46880565312500 1.33337630000000 5.00203441875000 
 C -4.38529465312500 4.60516630000000 4.86931841875000 
 N -2.15183165312500 1.77422030000000 4.66774841875000 
 N -2.15308765312500 5.24796330000000 4.67667741875000 
 N -4.45351965312500 1.31860330000000 3.63921741875000 
 N -4.30133465312500 4.54223530000000 3.54759641875000 
 N -4.68950765312500 1.62736230000000 7.65527341875000 
 N -4.91696865312500 4.62711030000000 7.39812041875000 
 S -5.70817865312500 1.45521230000000 6.35731541875000 
 S -5.71147365312500 4.51920930000000 5.91497641875000 
 S -2.94191565312500 1.55750030000000 3.17900741875000 
 S -2.80541865312500 4.98504530000000 3.18792041875000 
 S -3.06963365312500 1.66762730000000 7.35311041875000 
 S -3.24373365312500 4.85073630000000 7.25749541875000 
