16

 C -3.21666139687500 1.14279848437500 5.57241980312500 
 C -3.35724739687500 4.83826948437500 5.48863280312500 
 C -4.29954839687500 0.586150484375004 4.73888780312500 
 C -4.66343739687500 4.70356048437500 4.87945680312500 
 N -2.11521639687500 1.50458248437500 4.90445180312500 
 N -2.34596439687500 4.76717948437500 4.65963880312500 
 N -4.05135739687500 0.671366484375004 3.43240380312500 
 N -4.59035439687500 4.61573448437500 3.55134480312500 
 N -4.90574739687500 0.251194484375004 7.15001580312500 
 N -5.00198239687500 4.68155248437500 7.42205580312500 
 S -5.62828739687500 6.359148437500428E-002 5.65650180312500 
 S -5.87580339687500 4.59405848437500 6.04156280312500 
 S -2.55097539687500 1.34360548437500 3.31446780312500 
 S -2.98357539687500 4.61972548437500 3.13373480312500 
 S -3.48447539687500 1.03228648437500 7.22789380312500 
 S -3.34534639687500 4.79999148437500 7.24607180312500 
