16

 C -3.00291588750000 1.61885534375000 5.51807117187500 
 C -3.06780088750000 5.30886134375000 5.50571717187500 
 C -4.19605088750000 1.17647534375000 4.82358117187500 
 C -4.32059188750000 5.05031634375000 4.81828917187500 
 N -1.94812688750000 1.75891934375000 4.71924217187500 
 N -2.00092688750000 5.31232434375000 4.72164017187500 
 N -4.05503588750000 0.902793343749999 3.50139217187500 
 N -4.17453288750000 4.82761434375000 3.51721317187500 
 N -4.85462988750000 1.41487134375000 7.40028817187500 
 N -4.75244988750000 5.14959834375000 7.34470317187500 
 S -5.55125888750000 0.951549343749999 5.98728817187500 
 S -5.64486488750000 4.83948934375000 5.98781417187500 
 S -2.53860088750000 1.36834734375000 3.13021317187500 
 S -2.57202688750000 5.08412734375000 3.18450617187500 
 S -3.20222288750000 1.82747834375000 7.27715417187500 
 S -3.15804788750000 5.54853734375000 7.20640317187500 
