16

 C -2.58617490000000 1.58237711562500 5.38703080312500 
 C -3.37477990000000 5.01062611562500 5.59410480312500 
 C -3.74644490000000 0.838923115625000 4.83448080312500 
 C -4.54644790000000 4.50329911562500 4.88418780312500 
 N -1.80362890000000 2.08434311562500 4.46260680312500 
 N -2.39221390000000 5.41046511562500 4.77848680312500 
 N -3.70791790000000 0.752209115625000 3.53301380312500 
 N -4.38196290000000 4.36533811562500 3.57961980312500 
 N -4.25522690000000 1.05177711562500 7.31402180312500 
 N -5.13430990000000 4.41997211562500 7.39386780312500 
 S -5.04059890000000 0.528718115625000 5.95683380312500 
 S -5.79151990000000 4.02986411562500 5.93830880312500 
 S -2.41912490000000 1.63216811562500 2.97360180312500 
 S -2.93531390000000 5.14071011562500 3.25560680312500 
 S -2.91260190000000 2.01371911562500 7.02239780312500 
 S -3.61960990000000 5.17370911562500 7.34391180312500 
