16

 C -3.06802705625000 1.27674457187500 5.67661797500000 
 C -3.26855605625000 5.31885757187500 5.31633897500000 
 C -4.18266205625000 0.653134571875000 4.96314997500000 
 C -4.32080605625000 4.46897757187500 4.84367897500000 
 N -2.03438905625000 1.52056357187500 4.87715797500000 
 N -2.29444605625000 5.57033757187500 4.46138697500000 
 N -3.98093905625000 0.434380571875000 3.68459797500000 
 N -3.97674505625000 3.86983757187500 3.73043397500000 
 N -4.88035505625000 1.07789257187500 7.44220197500000 
 N -5.06396205625000 5.09217457187500 7.26509497500000 
 S -5.49606805625000 0.296674571875000 6.04763497500000 
 S -5.53353105625000 4.14144057187500 6.01107097500000 
 S -2.48565205625000 0.947818571875000 3.32997897500000 
 S -2.61500405625000 4.61095157187500 3.14916097500000 
 S -3.31569705625000 1.62889657187500 7.43350097500000 
 S -3.62497205625000 5.88290957187500 7.00365797500000 
