16

 C -3.21209043437500 1.07255369375000 5.43669813125000 
 C -2.84308043437500 5.13426469375000 5.43455513125000 
 C -4.50196643437500 0.664223693749999 4.92752713125000 
 C -3.99220943437500 4.73311269375000 4.67766613125000 
 N -2.22372343437500 1.18775269375000 4.53790813125000 
 N -1.72972743437500 5.33635769375000 4.72955313125000 
 N -4.54558743437500 0.462502693749999 3.58425313125000 
 N -3.80894843437500 4.85071069375000 3.35933113125000 
 N -4.81223843437500 1.32848569375000 7.45757113125000 
 N -4.76290743437500 5.04909269375000 7.17896013125000 
 S -5.69811843437500 0.650521693749999 6.23005213125000 
 S -5.38969043437500 4.66553869375000 5.70657113125000 
 S -2.99831843437500 0.815540693749999 3.10211013125000 
 S -2.16701143437500 5.16706269375000 3.11230613125000 
 S -3.14620743437500 1.37119269375000 7.16994813125000 
 S -3.09493243437500 5.17354069375000 7.19649013125000 
