16

 C -3.19074900625000 1.31858241562500 5.74016085937500 
 C -3.22756900625000 5.34109241562500 5.56571885937500 
 C -4.51087500625000 1.08883041562500 5.08134185937500 
 C -4.43199900625000 4.86444141562500 4.90022885937500 
 N -2.17408600625000 1.34908341562500 4.90188685937500 
 N -2.24412600625000 5.64468541562500 4.71117285937500 
 N -4.48405300625000 0.938101415624999 3.76032985937500 
 N -4.22278200625000 4.57933041562500 3.59625485937500 
 N -4.96012500625000 1.35884141562500 7.61701685937500 
 N -4.96593800625000 5.04331341562500 7.39909385937500 
 S -5.80448700625000 1.08667041562500 6.16204085937500 
 S -5.69432000625000 4.51352341562500 5.95838985937500 
 S -2.88353100625000 0.967587415624999 3.40321585937500 
 S -2.67978000625000 5.05987041562500 3.21709185937500 
 S -3.29832700625000 1.43888141562500 7.42284185937500 
 S -3.29189300625000 5.42568841562500 7.33793285937500 
