16

 C -3.06494992812500 1.26547489062500 5.68924911250000 
 C -3.05500692812500 4.94952789062500 5.51598211250000 
 C -4.32082892812500 0.743145890624996 5.06782911250000 
 C -4.26245792812500 4.40558389062500 4.86376311250000 
 N -2.02985692812500 1.28479089062500 4.85421511250000 
 N -1.97778592812500 4.95986689062500 4.74937711250000 
 N -4.19423792812500 0.506533890624996 3.76019411250000 
 N -4.11901792812500 4.08659889062500 3.59033611250000 
 N -4.78420192812500 1.04329289062500 7.62111311250000 
 N -4.88959492812500 4.89936489062500 7.27030611250000 
 S -5.68053992812500 0.715183890624997 6.20985111250000 
 S -5.59762992812500 4.15549889062500 5.93868611250000 
 S -2.61997292812500 0.736952890624996 3.34860011250000 
 S -2.51477992812500 4.40721389062500 3.26880711250000 
 S -3.21385092812500 1.64694189062500 7.35595811250000 
 S -3.28885492812500 5.38548289062500 7.14368411250000 
