16

 C -2.96110052187500 1.45478692187500 5.48716507812500 
 C -3.16122352187500 5.08509192187500 5.56626107812500 
 C -4.23276652187500 1.29974392187500 4.81529207812500 
 C -4.35102152187500 4.60469592187500 4.92601807812500 
 N -1.90639852187500 1.31020792187500 4.65405007812500 
 N -2.16488052187500 5.22355692187500 4.66303007812500 
 N -4.20162152187500 1.06961092187500 3.49552707812500 
 N -4.24615552187500 4.27622292187500 3.64836707812500 
 N -4.77083152187500 1.56317692187500 7.32805007812500 
 N -5.04058152187500 5.16676192187500 7.31446507812500 
 S -5.60153052187500 1.49151192187500 5.88083007812500 
 S -5.75416052187500 4.62509392187500 5.90286407812500 
 S -2.54071652187500 1.14158392187500 3.18912107812500 
 S -2.68758052187500 4.69794792187500 3.21126907812500 
 S -3.09494852187500 1.66204692187500 7.18189307812500 
 S -3.36749952187500 5.39814992187500 7.27759007812500 
