16

 C -3.13068676250000 0.918866324999997 5.60746215625000 
 C -3.16689276250000 4.88221132500000 5.34042415625000 
 C -4.40640176250000 0.816319324999998 4.87669615625000 
 C -4.36890876250000 4.52068132500000 4.65607515625000 
 N -2.04687676250000 0.932329324999998 4.85019215625000 
 N -2.09803276250000 5.03992932500000 4.54674715625000 
 N -4.18420876250000 0.777396324999997 3.57545215625000 
 N -4.20717076250000 4.29813132500000 3.33404615625000 
 N -5.03013776250000 0.607053324999997 7.39111115625000 
 N -4.90813076250000 4.68981332500000 7.16349215625000 
 S -5.78009876250000 0.397801324999997 5.93432315625000 
 S -5.64888976250000 4.13841932500000 5.77368315625000 
 S -2.57104076250000 0.938572324999997 3.30742015625000 
 S -2.60951176250000 4.69319532500000 3.04004115625000 
 S -3.38412176250000 0.908587324999997 7.29153015625000 
 S -3.43789976250000 5.37894832500000 7.02826715625000 
