16

 C -3.28851687187500 1.35090933437500 5.51430126250000 
 C -3.23491487187500 5.02376233437500 5.46924426250000 
 C -4.55241387187500 1.01950033437500 4.92597226250000 
 C -4.48062887187500 4.74493733437500 4.80948126250000 
 N -2.26499187187500 1.49947033437500 4.68789526250000 
 N -2.24381187187500 5.27731433437500 4.62688126250000 
 N -4.48449987187500 0.901348334375000 3.61047926250000 
 N -4.36382987187500 4.51485733437500 3.50163626250000 
 N -4.97454787187500 1.03890133437500 7.51357626250000 
 N -4.94179887187500 4.72910733437500 7.33372926250000 
 S -5.83463287187500 0.795196334374999 6.12147226250000 
 S -5.76025987187500 4.47352933437500 5.91192426250000 
 S -2.88747587187500 1.13492033437500 3.19419626250000 
 S -2.82501587187500 4.95283133437500 3.10535226250000 
 S -3.38045387187500 1.45311933437500 7.23470026250000 
 S -3.29032887187500 5.15324333437500 7.19336426250000 
