16

 C -3.16293784062500 1.61246997812500 5.56096855000000 
 C -3.18834384062500 5.00780497812500 5.51875755000000 
 C -4.49744584062500 1.40236997812500 5.02035355000000 
 C -4.39571884062500 4.62276897812500 4.86153655000000 
 N -2.17526384062500 1.77305097812500 4.67531555000000 
 N -2.16153784062500 5.26471397812500 4.69558155000000 
 N -4.46788284062500 1.32047197812500 3.66787255000000 
 N -4.28754884062500 4.52387097812500 3.53820055000000 
 N -4.69098984062500 1.62176797812500 7.65723555000000 
 N -4.89737784062500 4.60202597812500 7.39005955000000 
 S -5.69655984062500 1.47357297812500 6.33898555000000 
 S -5.69295684062500 4.49840297812500 5.94456455000000 
 S -2.93044284062500 1.57635897812500 3.16102055000000 
 S -2.78673584062500 5.01274497812500 3.18896655000000 
 S -3.06064584062500 1.65023197812500 7.33205355000000 
 S -3.22110184062500 4.83647197812500 7.26040355000000 
