16

 C -3.18161006250000 1.19602969375000 5.19948092812500 
 C -3.12181406250000 5.08676069375000 5.63021492812500 
 C -4.48276206250000 0.900108693749997 4.67408992812500 
 C -4.38455706250000 4.69934969375000 5.05957392812500 
 N -2.12195406250000 1.09987469375000 4.35360392812500 
 N -2.16172806250000 5.29978469375000 4.69823092812500 
 N -4.40211206250000 0.606638693749997 3.35683492812500 
 N -4.48090706250000 4.57334869375000 3.73387392812500 
 N -4.83007006250000 1.62527369375000 7.18539392812500 
 N -4.86603106250000 4.89619369375000 7.58759192812500 
 S -5.69547106250000 0.955876693749996 5.95881292812500 
 S -5.68533506250000 4.47049869375000 6.17910692812500 
 S -2.83982806250000 0.878459693749997 2.92455592812500 
 S -2.99425306250000 4.97585269375000 3.24176992812500 
 S -3.17487006250000 1.72229969375000 6.84697292812500 
 S -3.32248506250000 5.21777869375000 7.39290892812500 
