16

 C -3.14251765625000 1.57734825625000 5.36140460312500 
 C -3.07182965625000 4.90438825625000 5.47088960312500 
 C -4.35121765625000 1.16272725625000 4.70121560312500 
 C -4.29391065625000 4.86068525625000 4.76359260312500 
 N -2.11289865625000 1.93817825625000 4.61791260312500 
 N -2.03217965625000 5.15288725625000 4.65962360312500 
 N -4.19360565625000 1.11990925625000 3.38342160312500 
 N -4.20447265625000 4.79173425625000 3.40372360312500 
 N -4.95616065625000 1.11756125625000 7.19397260312500 
 N -4.89294365625000 5.00638025625000 7.36080160312500 
 S -5.76640065625000 0.880485256250001 5.73839960312500 
 S -5.60993865625000 4.70466725625000 5.88966560312500 
 S -2.67431265625000 1.56662925625000 2.99111960312500 
 S -2.57117865625000 5.01582825625000 3.08288260312500 
 S -3.42977265625000 1.62244525625000 7.07956160312500 
 S -3.20385565625000 4.89100425625000 7.18966660312500 
