16

 C -3.08871847812500 1.18972415937500 5.82072393437500 
 C -3.21450047812500 5.06098515937500 5.49388293437500 
 C -4.22125947812500 0.604039159374998 5.15691893437500 
 C -4.36688347812500 4.45671615937500 4.88709693437500 
 N -2.03552647812500 1.34924515937500 5.04700393437500 
 N -2.17077947812500 5.25994115937500 4.68506893437500 
 N -4.06062447812500 0.420280159374999 3.86190593437500 
 N -4.26113447812500 4.26595015937500 3.57614793437500 
 N -4.71878847812500 0.849227159374998 7.65190193437500 
 N -4.84078047812500 4.47996515937500 7.39240193437500 
 S -5.53500347812500 0.445658159374998 6.25345793437500 
 S -5.72423747812500 4.16835515937500 5.98947993437500 
 S -2.43619747812500 0.778454159374999 3.55043593437500 
 S -2.75263047812500 4.85729815937500 3.18384293437500 
 S -3.14710847812500 1.41717515937500 7.52771893437500 
 S -3.37302647812500 5.30267615937500 7.17291493437500 
