16

 C -3.23315667812500 1.55635660312500 5.58775303437500 
 C -2.99594767812500 5.37621460312500 5.59013903437500 
 C -4.38507867812500 1.29979860312500 4.78766803437500 
 C -4.24397967812500 5.04603560312500 5.00630103437500 
 N -2.13519667812500 1.84806060312500 4.89600003437500 
 N -1.98725667812500 5.43087960312500 4.68808603437500 
 N -4.20501367812500 1.20180060312500 3.46856103437500 
 N -4.21352567812500 4.79738060312500 3.70777703437500 
 N -5.02376267812500 0.682974603125002 7.19523303437500 
 N -4.79082167812500 5.08761260312500 7.48709603437500 
 S -5.69854267812500 0.749933603125001 5.73622903437500 
 S -5.65864667812500 4.91536860312500 6.04686103437500 
 S -2.63578567812500 1.72261760312500 3.27178803437500 
 S -2.66454667812500 4.99175460312500 3.18539803437500 
 S -3.48392767812500 1.32425760312500 7.33364103437500 
 S -3.15769967812500 5.50999660312500 7.32309203437500 
