16

 C -3.36708910000000 1.16412848750000 5.84279205625000 
 C -3.21670810000000 5.07897248750000 5.21803905625000 
 C -4.64218110000000 0.856767487500001 5.05805605625000 
 C -4.36931410000000 4.54580548750000 4.54914905625000 
 N -2.27575210000000 1.43880748750000 5.13067905625000 
 N -2.16097510000000 5.15620948750000 4.41080705625000 
 N -4.38066610000000 0.804538487500002 3.74638505625000 
 N -4.28009610000000 4.42650848750000 3.22699205625000 
 N -5.29052410000000 0.872784487500002 7.60630705625000 
 N -5.02031010000000 4.87205548750000 7.02062105625000 
 S -6.01775510000000 0.688008487500002 6.11767605625000 
 S -5.76856010000000 4.52474648750000 5.57356705625000 
 S -2.79912310000000 1.24518748750000 3.57574605625000 
 S -2.69357410000000 4.80746148750000 2.87164605625000 
 S -3.70761310000000 1.41238748750000 7.51718205625000 
 S -3.47420510000000 5.35465848750000 6.89111905625000 
