16

 C -2.92743282187500 1.91820424375000 5.57811199062500 
 C -3.19173682187500 5.59497524375000 5.28926899062500 
 C -4.17488382187500 1.65576824375000 4.92617499062500 
 C -4.34399382187500 4.94417724375000 4.67120899062500 
 N -1.84409982187500 2.02802524375000 4.79252399062500 
 N -2.25040082187500 5.89859124375000 4.39383899062500 
 N -4.09134482187500 1.61283224375000 3.59431899062500 
 N -4.23146782187500 4.61320124375000 3.40930999062500 
 N -4.63704082187500 1.55573724375000 7.56022999062500 
 N -4.91079282187500 5.00090824375000 7.19604999062500 
 S -5.47556782187500 1.42211424375000 6.13900399062500 
 S -5.66648982187500 4.52945924375000 5.76165299062500 
 S -2.51598682187500 1.86700924375000 3.22500799062500 
 S -2.77087282187500 5.26061524375000 2.93004199062500 
 S -3.05824882187500 2.11801524375000 7.32861199062500 
 S -3.31055882187500 5.45470324375000 7.06860099062500 
