16

 C -3.39025341875000 1.46635231562500 5.50387633750000 
 C -3.43285941875000 5.23806831562500 5.13424533750000 
 C -4.55330641875000 0.906826315625001 4.98474533750000 
 C -4.53199541875000 4.50422631562500 4.54408033750000 
 N -2.36827841875000 1.59398031562500 4.67122433750000 
 N -2.36715741875000 5.38759831562500 4.33002933750000 
 N -4.46626041875000 0.603412315625001 3.70103733750000 
 N -4.40989941875000 4.30833131562500 3.23448433750000 
 N -4.96408741875000 1.08793631562500 7.39423033750000 
 N -5.12050641875000 4.69416031562500 7.03374533750000 
 S -5.87756641875000 0.747541315625002 6.06960433750000 
 S -5.77732041875000 4.01680331562500 5.67940533750000 
 S -2.96973741875000 1.06093231562500 3.23544233750000 
 S -2.82836541875000 4.73286331562500 2.88810333750000 
 S -3.42904241875000 1.65734231562500 7.21365133750000 
 S -3.54383441875000 5.26998131562500 6.88353733750000 
