16

 C -3.27096637812500 1.56295263125000 5.86169681562500 
 C -3.00424737812500 5.21927363125000 5.79023681562500 
 C -4.46703737812500 1.15409863125000 5.20324881562500 
 C -4.23952737812500 4.72821763125000 5.15791981562500 
 N -2.20637437812500 1.64331563125000 5.05454781562500 
 N -2.01517237812500 5.40583463125000 4.95951581562500 
 N -4.26783037812500 0.867358631250002 3.89312481562500 
 N -4.15440037812500 4.54499063125000 3.84322481562500 
 N -4.98780137812500 1.31870263125000 7.70621781562500 
 N -4.93213437812500 4.97298563125000 7.62773481562500 
 S -5.80609837812500 0.843936631250002 6.33872781562500 
 S -5.57624737812500 4.28614663125000 6.22646481562500 
 S -2.73552337812500 1.24909863125000 3.54749781562500 
 S -2.59505037812500 4.90144563125000 3.42957781562500 
 S -3.40778337812500 1.81785463125000 7.51452281562500 
 S -3.28887937812500 5.40381163125000 7.57880381562500 
