16

 C -3.28730680000000 1.19949779687500 5.53237671562500 
 C -3.40332180000000 4.70839379687500 5.31786171562500 
 C -4.41929980000000 0.715633796875002 4.84704171562500 
 C -4.64048480000000 4.50212379687500 4.65099071562500 
 N -2.23239580000000 1.55515279687500 4.80094871562500 
 N -2.40567580000000 4.96880179687500 4.49780871562500 
 N -4.22927580000000 0.568408796875002 3.53010371562500 
 N -4.60059580000000 4.52195979687500 3.30420071562500 
 N -5.08441280000000 0.940048796875002 7.33571871562500 
 N -5.16422880000000 4.70693279687500 7.21528671562500 
 S -5.67011680000000 0.146316796875002 5.93937071562500 
 S -5.97909880000000 4.50456179687500 5.78034271562500 
 S -2.74954880000000 1.21487579687500 3.29348371562500 
 S -3.00147280000000 4.95549179687500 2.98240271562500 
 S -3.46993280000000 1.33981179687500 7.21502171562500 
 S -3.48325680000000 4.90016379687500 7.04402271562500 
