16

 C -3.04541181562500 1.22712358437500 5.52884900312500 
 C -3.11717381562500 5.19671658437500 5.22459300312500 
 C -4.22613681562500 0.915143584374998 4.77116400312500 
 C -4.38069881562500 4.83309458437500 4.58520500312500 
 N -1.91833981562500 1.36783058437500 4.85879300312500 
 N -2.18205181562500 5.55263258437500 4.34652300312500 
 N -3.98244781562500 0.683893584374998 3.48351100312500 
 N -4.24244281562500 4.57726758437500 3.30738500312500 
 N -4.87672281562500 1.21199058437500 7.30994400312500 
 N -4.79007581562500 4.89453458437500 7.17352600312500 
 S -5.56587281562500 0.897602584374998 5.81109400312500 
 S -5.64594281562500 4.69560058437500 5.79692500312500 
 S -2.39231681562500 0.964667584374998 3.25966200312500 
 S -2.68753781562500 5.08852758437500 2.85105800312500 
 S -3.24910581562500 1.58245558437500 7.24749400312500 
 S -3.21830881562500 5.42903358437500 6.99884500312500 
