16

 C -3.08560745937500 1.59938091875000 5.46756895937500 
 C -2.89431445937500 4.93942591875000 5.40282295937500 
 C -4.36316145937500 1.13774391875000 4.96341495937500 
 C -4.21006745937500 4.70668191875000 4.80688695937500 
 N -2.05584245937500 1.60573791875000 4.60524195937500 
 N -1.88552745937500 4.86509091875000 4.53727395937500 
 N -4.27906645937500 0.809300918750001 3.65341595937500 
 N -4.20508845937500 4.39304491875000 3.51753595937500 
 N -4.84397445937500 1.41652391875000 7.38648295937500 
 N -4.70481945937500 5.15728891875000 7.31592195937500 
 S -5.65810545937500 0.822416918750001 6.00598595937500 
 S -5.55079645937500 4.93581591875000 5.89148295937500 
 S -2.72881745937500 1.19833491875000 3.16968095937500 
 S -2.60739245937500 4.45550991875000 3.05906295937500 
 S -3.26166445937500 1.82155391875000 7.19774495937500 
 S -3.06491345937500 5.28710891875000 7.07069795937500 
