16

 C -3.21417117500000 1.36189782187500 5.52611403125000 
 C -3.10698317500000 5.32239082187500 5.69661803125000 
 C -4.40505817500000 0.973858821874999 4.75654403125000 
 C -4.32809017500000 5.08425082187500 5.02918203125000 
 N -2.16056217500000 1.73261482187500 4.77618903125000 
 N -1.99452617500000 5.42405782187500 4.94361803125000 
 N -4.20103817500000 0.981840821874999 3.44475603125000 
 N -4.15107817500000 4.87946982187500 3.72510803125000 
 N -5.06135017500000 0.888070821874999 7.21586903125000 
 N -4.92994917500000 5.12018482187500 7.55424903125000 
 S -5.77055517500000 0.483907821874999 5.76059903125000 
 S -5.70278117500000 5.05328082187500 6.09541803125000 
 S -2.65118517500000 1.51258182187500 3.22288503125000 
 S -2.57346217500000 5.18881882187500 3.39514903125000 
 S -3.52215417500000 1.49741282187500 7.19741303125000 
 S -3.33766417500000 5.57574382187500 7.36891503125000 
