16

 C -3.05595655625000 1.26353836250000 5.66292054687500 
 C -3.00945655625000 4.88910636250000 5.55551354687500 
 C -4.33499155625000 0.860072362500002 5.15299954687500 
 C -4.21527855625000 4.35319036250000 4.94970054687500 
 N -2.03547555625000 1.21388736250000 4.80939954687500 
 N -2.02360155625000 4.81724136250000 4.69581354687500 
 N -4.31661055625000 0.594066362500002 3.83579954687500 
 N -4.19035555625000 4.08682636250000 3.65320254687500 
 N -4.81978355625000 1.26121936250000 7.57449154687500 
 N -4.76631755625000 4.82414936250000 7.43223454687500 
 S -5.65416555625000 0.839344362500002 6.24796154687500 
 S -5.55808655625000 4.37402636250000 5.98746754687500 
 S -2.79750155625000 0.873464362500003 3.31692054687500 
 S -2.61255255625000 4.32538136250000 3.22243954687500 
 S -3.16965955625000 1.62165036250000 7.36269854687500 
 S -3.13703655625000 5.27107636250000 7.23418254687500 
