16

 C -3.22554082500000 1.44029841562500 5.53820953125000 
 C -3.15343382500000 5.38470041562500 5.65493753125000 
 C -4.33537182500000 1.01300341562500 4.78081153125000 
 C -4.34042282500000 4.95900841562500 4.96391353125000 
 N -2.14088882500000 1.79934841562500 4.83608853125000 
 N -2.09050382500000 5.38667141562500 4.88891753125000 
 N -4.18476482500000 1.17333041562500 3.48051253125000 
 N -4.23813482500000 4.85057541562500 3.63151953125000 
 N -5.03392582500000 0.683570415624999 7.25844153125000 
 N -4.78838682500000 5.05938441562500 7.47150853125000 
 S -5.79730882500000 0.595639415624999 5.75330353125000 
 S -5.65305582500000 5.03576241562500 6.10339853125000 
 S -2.59397582500000 1.60406641562500 3.19192453125000 
 S -2.57737282500000 5.10391941562500 3.35959953125000 
 S -3.51382682500000 1.47817041562500 7.25054753125000 
 S -3.21874982500000 5.58337941562500 7.38121953125000 
