16

 C -3.12116882500000 1.23973795000000 5.66820215625000 
 C -2.99342682500000 5.12707495000000 5.51213115625000 
 C -4.43229482500000 1.12255195000000 4.95708015625000 
 C -4.24194782500000 4.83777695000000 4.85836115625000 
 N -2.07249182500000 1.57306895000000 4.88739915625000 
 N -1.98173882500000 5.33487695000000 4.67853115625000 
 N -4.33409082500000 1.28866895000000 3.66442515625000 
 N -4.15384982500000 4.68502795000000 3.56021515625000 
 N -5.04497682500000 1.02283395000000 7.37787115625000 
 N -4.92571082500000 5.10542695000000 7.37831815625000 
 S -5.85903882500000 0.963066950000000 5.92165815625000 
 S -5.58559082500000 4.62600895000000 5.88568715625000 
 S -2.76453482500000 1.65784195000000 3.31898515625000 
 S -2.64582682500000 5.16461495000000 3.12546215625000 
 S -3.37202182500000 1.27757895000000 7.39137315625000 
 S -3.33269182500000 5.53312195000000 7.15277315625000 
