16

 C -3.31511600312500 1.47129017187500 5.18441097500000 
 C -3.09415600312500 5.16155517187500 5.37835297500000 
 C -4.51003600312500 1.02503217187500 4.52023797500000 
 C -4.28549200312500 4.58184117187500 4.74773597500000 
 N -2.19602700312500 1.49115017187500 4.46959697500000 
 N -1.99834100312500 5.14023517187500 4.59469797500000 
 N -4.27494000312500 0.619858171875002 3.29402497500000 
 N -4.05889800312500 4.03921117187500 3.54933397500000 
 N -5.11958200312500 1.05136517187500 7.00308197500000 
 N -4.86743300312500 4.93077317187500 7.26639297500000 
 S -5.84425700312500 0.604231171875001 5.58102097500000 
 S -5.63443900312500 4.46067417187500 5.88266997500000 
 S -2.64363200312500 0.861254171875002 2.97530097500000 
 S -2.40094400312500 4.24206217187500 3.27003797500000 
 S -3.57041900312500 1.71849317187500 6.90628897500000 
 S -3.28613800312500 5.50713917187500 7.14538597500000 
