16

 C -3.18047157500000 1.39922096562500 5.37294504687500 
 C -3.22130257500000 5.29980096562500 5.71925504687500 
 C -4.28344157500000 0.659931965625001 4.86644604687500 
 C -4.38379257500000 4.73427396562500 5.08750004687500 
 N -2.21713957500000 1.53258196562500 4.49394004687500 
 N -2.13847357500000 5.38514796562500 4.90591104687500 
 N -4.09814057500000 0.169585965625000 3.64935904687500 
 N -4.21222957500000 4.49003896562500 3.76467904687500 
 N -5.00795757500000 1.58062796562500 7.17364404687500 
 N -5.02124057500000 5.04131496562500 7.58343904687500 
 S -5.68917257500000 0.705469965625000 5.90268504687500 
 S -5.67596157500000 4.53278496562500 6.15555204687500 
 S -2.63485757500000 0.627729965625000 3.11833504687500 
 S -2.69502557500000 4.90386996562500 3.37677904687500 
 S -3.43796957500000 2.06423096562500 6.94940904687500 
 S -3.51390257500000 5.74113496562500 7.34488104687500 
