16

 C -3.27969763125000 1.15245956562500 5.96703847812500 
 C -2.97018463125000 4.78921456562500 5.28521147812500 
 C -4.46403763125000 0.748265565624999 5.20596847812500 
 C -4.23062763125000 4.58930556562500 4.62916547812500 
 N -2.19290663125000 1.49608156562500 5.22883347812500 
 N -1.98218063125000 4.87676556562500 4.42804847812500 
 N -4.24408463125000 0.690763565624999 3.87639747812500 
 N -4.17821363125000 4.43368456562500 3.31049747812500 
 N -5.12931863125000 0.596234565624999 7.75741847812500 
 N -4.74257463125000 4.65178656562500 7.17252347812500 
 S -5.88330463125000 0.365677565624999 6.25420247812500 
 S -5.59747163125000 4.54898756562500 5.70982447812500 
 S -2.71293663125000 1.26407756562500 3.66603447812500 
 S -2.59932163125000 4.76176756562500 2.86663747812500 
 S -3.61192163125000 1.28975256562500 7.67203247812500 
 S -3.11486063125000 4.93500156562500 7.04897047812500 
