16

 C -3.12339002500000 1.18583292500000 5.48031439687500 
 C -3.07477802500000 4.64747892500000 5.54496439687500 
 C -4.24564002500000 0.519572924999999 4.83054139687500 
 C -4.29451502500000 4.32946792500000 4.89059839687500 
 N -2.06012002500000 1.45437892500000 4.71574039687500 
 N -2.04659602500000 4.80633592500000 4.72579439687500 
 N -3.98517302500000 0.346458924999999 3.52684139687500 
 N -4.14198102500000 4.11319792500000 3.59470039687500 
 N -4.98928302500000 1.06354592500000 7.24303339687500 
 N -4.94664402500000 5.16076592500000 7.26299839687500 
 S -5.66966102500000 0.341412924999999 5.89431139687500 
 S -5.68658902500000 4.42860892500000 5.93250039687500 
 S -2.53200602500000 1.06459792500000 3.17882439687500 
 S -2.57932902500000 4.48054292500000 3.16799739687500 
 S -3.46504102500000 1.66057192500000 7.12003539687500 
 S -3.29337902500000 5.40422492500000 7.17790439687500 
