16

 C -2.66591620625000 1.60978060000000 5.35395021562501 
 C -3.40339120625000 5.09314660000000 5.61194121562500 
 C -3.74212220625000 0.886138600000001 4.83120121562501 
 C -4.46675820625000 4.44763060000000 4.89599421562500 
 N -1.85276020625000 2.04078560000000 4.42693821562500 
 N -2.36720120625000 5.37955360000000 4.83415521562500 
 N -3.77556120625000 0.751328600000001 3.52801121562500 
 N -4.40364220625000 4.51157860000000 3.58002521562500 
 N -4.18697420625000 1.04026260000000 7.29753021562501 
 N -5.01964320625000 4.39115460000000 7.40072821562500 
 S -5.00051620625000 0.562212600000001 5.92797821562501 
 S -5.79199020625000 4.03657660000000 5.94938721562500 
 S -2.45315520625000 1.55054360000000 2.94347921562500 
 S -2.89097220625000 5.08454860000000 3.28101521562500 
 S -2.82690020625000 1.96587860000000 7.07478121562500 
 S -3.55885120625000 5.08701760000000 7.29951021562500 
