16

 C -3.48587986875000 1.67752827187500 5.42234271562500 
 C -3.22948086875000 5.05911627187500 5.69606171562500 
 C -4.59460786875000 1.12190027187500 4.66081171562500 
 C -4.48107286875000 4.89364927187500 5.01237771562500 
 N -2.46045886875000 2.04002427187500 4.65962171562500 
 N -2.21751186875000 5.23993727187500 4.85367171562500 
 N -4.32923386875000 0.955759271875000 3.30865071562500 
 N -4.37448786875000 4.72603427187500 3.66601971562500 
 N -5.40826086875000 1.44607027187500 7.08336671562500 
 N -4.92101986875000 5.03457627187500 7.56135071562500 
 S -5.94559586875000 0.757735271875000 5.67535571562500 
 S -5.74702586875000 4.73177827187500 6.15876371562500 
 S -2.77783186875000 1.54335227187500 3.08144771562500 
 S -2.78179686875000 4.91996827187500 3.35038771562500 
 S -3.80910286875000 1.95598627187500 7.06614171562500 
 S -3.26502386875000 5.28110227187500 7.39702571562500 
