16

 C -3.19103170937500 1.13621484687500 5.18199876250000 
 C -3.22819170937500 5.00081384687500 5.54476576250000 
 C -4.51531270937500 0.821379846875000 4.65162576250000 
 C -4.51581870937500 4.61665884687500 4.95943876250000 
 N -2.23252870937500 1.13944784687500 4.29049876250000 
 N -2.29502270937500 5.19976284687500 4.58195776250000 
 N -4.53061470937500 0.724514846874999 3.33751376250000 
 N -4.53799570937500 4.54288984687500 3.60498076250000 
 N -4.84410970937500 1.42623984687500 7.06474276250000 
 N -4.86410470937500 4.91824084687500 7.58360376250000 
 S -5.76920170937500 0.835281846875000 5.88717576250000 
 S -5.78246970937500 4.44819984687500 6.14969276250000 
 S -2.92367670937500 0.820413846875000 2.86186176250000 
 S -2.98689970937500 4.95275484687500 3.13385576250000 
 S -3.20903570937500 1.65593384687500 6.88347176250000 
 S -3.22890270937500 5.25517084687500 7.27653076250000 
