16

 C -3.50049877187500 1.46772525312500 5.50880370937500 
 C -2.94393877187500 5.21499225312500 5.50600470937500 
 C -4.48271677187500 0.597935253124998 4.91867070937500 
 C -4.16462277187500 4.88553725312500 4.83913270937500 
 N -2.47167577187500 1.75362725312500 4.74108970937500 
 N -1.90677777187500 5.25710925312500 4.64588370937500 
 N -4.18032677187500 0.263494253124998 3.68521970937500 
 N -4.04411277187500 4.62563625312500 3.51552370937500 
 N -5.14064077187500 1.08044325312500 7.36580770937500 
 N -4.80848377187500 4.98540525312500 7.28931870937500 
 S -5.80488977187500 0.274713253124999 6.05229470937500 
 S -5.56409677187500 4.84448825312500 5.76410870937500 
 S -2.71057877187500 1.01476825312500 3.27433970937500 
 S -2.48947077187500 4.87533225312500 3.09192370937500 
 S -3.70534677187500 1.83873125312500 7.19415970937500 
 S -3.14461577187500 5.45003425312500 7.24162670937500 
