16

 C -2.83440310000000 1.26090390937500 5.74437631562500 
 C -2.97687410000000 4.68018490937500 5.54399231562500 
 C -4.14899610000001 1.20345890937500 5.09173931562500 
 C -4.14978410000001 4.42572390937500 4.79897331562500 
 N -1.83449910000000 1.08033790937500 4.92675931562500 
 N -1.88129210000000 4.64757290937500 4.80103031562500 
 N -4.07414810000000 0.942761909374999 3.78946131562500 
 N -3.96145210000000 4.25360690937500 3.47203231562500 
 N -4.66492410000000 1.47568190937500 7.51926831562500 
 N -4.93468510000000 4.82803890937500 7.23511231562500 
 S -5.56144610000000 1.36372190937500 6.13928131562500 
 S -5.63525310000001 4.36054390937500 5.72481631562500 
 S -2.44051710000000 0.986135909374999 3.39721431562500 
 S -2.34925910000000 4.39761890937500 3.21508231562500 
 S -3.05930310000000 1.60829290937500 7.42590131562500 
 S -3.30217210000000 5.12119890937500 7.16150431562500 
