16

 C -3.18403661250000 1.29674500312500 5.17357719687500 
 C -3.31817261250000 5.07014000312500 5.41418819687500 
 C -4.48871461250000 0.948780003125004 4.69429619687500 
 C -4.59201161250000 4.65423600312500 4.89178819687500 
 N -2.21196161250000 1.22979300312500 4.29267919687500 
 N -2.31911461250000 5.19182400312500 4.59916319687500 
 N -4.50272161250000 0.536524003125004 3.45679819687500 
 N -4.48877661250000 4.48788200312500 3.56438119687500 
 N -4.95773461250000 1.17352900312500 7.22207519687500 
 N -4.80611661250000 4.84786600312500 7.39787719687500 
 S -5.76059561250000 0.803234003125004 5.74424819687500 
 S -5.75945761250000 4.55241500312500 6.18481819687500 
 S -2.97880561250000 0.766824003125004 2.82446319687500 
 S -2.90667461250000 4.82429200312500 3.09813619687500 
 S -3.32968761250000 1.51580200312501 6.95507719687500 
 S -3.26139861250000 5.25870600312500 7.04528419687500 
