16

 C -2.94364154375000 1.90594055312500 5.41656901250000 
 C -3.60006354375000 5.15507655312500 5.54338001250000 
 C -4.02201054375000 1.13771355312500 4.74500801250000 
 C -4.72958154375000 4.51969055312500 4.88248801250000 
 N -1.92141154375000 2.22274055312500 4.60990301250000 
 N -2.63878054375000 5.58812755312500 4.75000401250000 
 N -3.83357054375000 0.892001553124998 3.45335401250000 
 N -4.46394954375000 4.25217655312500 3.61463601250000 
 N -4.60468554375000 1.08079755312500 7.26580401250000 
 N -5.26922354375000 4.76619755312500 7.37880501250000 
 S -5.21204254375000 0.439132553124998 5.83129301250000 
 S -5.83645454375000 3.93560655312500 6.00473401250000 
 S -2.34591454375000 1.49087155312500 3.14692501250000 
 S -3.02621754375000 5.00895455312500 3.25162101250000 
 S -3.13854154375000 1.87903655312500 7.16470601250000 
 S -3.75606054375000 5.39760755312500 7.24892401250000 
