16

 C -3.32807630625000 1.36915369062500 5.64004778437500 
 C -3.37181430625000 5.14232969062500 5.25469578437500 
 C -4.50852630625000 1.04432269062500 4.97219878437500 
 C -4.48947230625000 4.49382669062500 4.63569278437500 
 N -2.22305430625000 1.54060069062500 4.85248278437500 
 N -2.30445630625000 5.25173969062500 4.45356478437500 
 N -4.43485230625000 0.846752690624997 3.62100178437500 
 N -4.37497430625000 4.34024469062500 3.30474978437500 
 N -5.21119630625000 0.979525690624997 7.46855678437500 
 N -4.99181130625000 4.68396169062500 7.17257778437500 
 S -5.93962930625000 0.757872690624998 5.99998278437500 
 S -5.79606030625000 4.34211669062500 5.77920978437500 
 S -2.85943630625000 1.18612269062500 3.32283378437500 
 S -2.82000930625000 4.89149669062500 2.92156978437500 
 S -3.62366230625000 1.47427169062500 7.37688678437500 
 S -3.47825530625000 5.29970069062500 6.98271678437500 
