16

 C -3.18048320000000 1.13253282187500 5.56361023437500 
 C -3.14227120000000 5.65893982187500 5.56592223437500 
 C -4.40586520000000 0.738958821875000 4.89785723437500 
 C -4.19350220000000 4.92071582187500 4.92430323437500 
 N -2.16716020000000 1.18588582187500 4.72033323437500 
 N -2.02085320000000 5.84800882187500 4.85272623437500 
 N -4.35622620000000 0.690142821875001 3.58325523437500 
 N -3.93836620000000 4.78497982187500 3.60482823437500 
 N -5.01166720000000 1.23823182187500 7.34826423437500 
 N -4.88612420000000 5.06908882187500 7.35021623437500 
 S -5.72701320000000 0.742277821875001 5.94516723437500 
 S -5.53848820000000 4.45044282187500 5.98866623437500 
 S -2.76491220000000 1.06244282187500 3.14583323437500 
 S -2.45447820000000 5.35289682187500 3.29462823437500 
 S -3.39890620000000 1.45482682187500 7.23436923437500 
 S -3.47186820000000 5.96604182187500 7.23831423437500 
