16

 C -3.02956033437500 1.63013275312500 5.40565819375000 
 C -3.21987533437500 5.12658875312500 5.58552119375000 
 C -4.32344033437500 1.13798575312500 4.86742319375000 
 C -4.46909133437500 4.79789575312500 4.95234219375000 
 N -1.99095033437500 1.61252375312500 4.58408319375000 
 N -2.17526033437500 5.34647175312500 4.79567019375000 
 N -4.24058333437500 0.741947753124998 3.59408419375000 
 N -4.33528133437500 4.69682575312500 3.62588119375000 
 N -4.61993933437500 1.20862675312500 7.32865619375000 
 N -4.96661533437500 4.79878875312500 7.41073719375000 
 S -5.59704033437500 1.05089475312500 6.02545819375000 
 S -5.80161333437500 4.32228775312500 6.01947819375000 
 S -2.69975033437500 1.16466675312500 3.12580219375000 
 S -2.74332633437500 5.03558975312500 3.22758019375000 
 S -3.06781933437500 1.80512975312500 7.09415019375000 
 S -3.35769533437500 5.07245375312500 7.28920019375000 
