16

 C -3.36636541875000 1.40886235625000 5.19693050000000 
 C -3.10344941875000 5.20335235625000 5.38696250000000 
 C -4.52664041875000 0.888767356250000 4.51548450000000 
 C -4.18378241875000 4.48465235625000 4.82407950000000 
 N -2.27533541875000 1.36179735625000 4.46373050000000 
 N -2.02508041875000 5.20042335625000 4.62100050000000 
 N -4.29804841875000 0.603947356250000 3.23841550000000 
 N -3.99299741875000 4.02807935625000 3.59447050000000 
 N -5.10270741875000 1.19018935625000 7.00932850000000 
 N -4.84157941875000 5.01888235625000 7.26157750000000 
 S -5.89067641875000 0.749346356250001 5.57931550000000 
 S -5.59622041875000 4.45414935625000 5.84614950000000 
 S -2.66787741875000 0.892994356250000 2.94578450000000 
 S -2.42410641875000 4.37148935625000 3.23959850000000 
 S -3.55146141875000 1.72845135625000 6.86615950000000 
 S -3.26545241875000 5.51396035625000 7.06100450000000 
