16

 C -3.06587329687500 1.04701305312501 5.45201867187500 
 C -3.13057329687500 4.89388405312500 5.50240367187500 
 C -4.28266729687500 0.675711053125005 4.71775267187500 
 C -4.39527629687500 4.64009505312501 4.88879567187500 
 N -1.97406729687500 1.11410205312501 4.70400367187500 
 N -2.11750029687500 4.94053105312500 4.63953067187500 
 N -4.09577629687500 0.548522053125005 3.41830167187500 
 N -4.32482429687500 4.39407405312500 3.61118467187500 
 N -4.88135629687500 0.702816053125005 7.21722967187500 
 N -4.81790329687500 5.03899505312500 7.37630567187500 
 S -5.65911829687500 0.366334053125005 5.80073267187500 
 S -5.73775029687500 5.01444605312500 5.97838167187500 
 S -2.48967729687500 0.930337053125005 3.15958867187500 
 S -2.68076829687500 4.55769605312500 3.12240067187500 
 S -3.31436929687500 1.20235105312501 7.14316067187500 
 S -3.16616029687500 5.04406105312501 7.24196167187500 
