16

 C -3.39120434375000 1.25379600000000 5.30934992187500 
 C -3.21082434375000 5.41187500000000 5.63813892187500 
 C -4.56538734375000 0.740408000000000 4.68657892187500 
 C -4.37914634375000 5.18259100000000 4.80679892187500 
 N -2.39137634375000 1.41925800000000 4.44546692187500 
 N -2.10245834375000 5.65267100000000 4.92496292187500 
 N -4.43204634375000 0.392277000000000 3.41181292187500 
 N -4.13918034375000 5.11595500000000 3.50239692187500 
 N -4.98952234375000 1.07040800000000 7.24156492187500 
 N -5.17254434375000 5.09567700000000 7.27200692187500 
 S -5.78281834375000 0.439062000000000 5.90617792187500 
 S -5.88000034375000 5.05511000000000 5.81398592187500 
 S -2.90891434375000 0.976078999999999 3.00852992187500 
 S -2.49178934375000 5.40035900000000 3.32704992187500 
 S -3.46373934375000 1.57740600000000 7.03098292187500 
 S -3.50006934375000 5.29214400000000 7.38876092187500 
