16

 C -3.17613702812500 1.41865417500000 5.50650127187500 
 C -2.83072302812500 5.31109917500000 5.44405227187500 
 C -4.40340902812500 0.836955175000001 5.03304027187500 
 C -4.08650002812500 4.88490017500000 4.88153627187500 
 N -2.18888202812500 1.64661217500000 4.65342227187500 
 N -1.92115502812500 5.59641817500000 4.43152427187500 
 N -4.32121902812500 0.622237175000001 3.73365427187500 
 N -4.19103102812500 4.80784017500000 3.53987727187500 
 N -4.66758202812500 1.18132917500000 7.60206627187500 
 N -4.62823402812500 4.95996217500000 7.42721327187500 
 S -5.59809902812500 0.695514175000001 6.35855427187500 
 S -5.40943902812500 4.67204517500000 5.95557627187500 
 S -2.79135702812500 1.08683317500000 3.26357827187500 
 S -2.68746902812500 5.26559617500000 3.01632927187500 
 S -3.12153202812500 1.67520517500000 7.23187227187500 
 S -3.01263702812500 5.39083317500000 7.20398227187500 
