16

 C -2.80586859687500 1.38550000937499 5.41823521250000 
 C -2.97845259687500 5.14206800937499 5.71446021250000 
 C -4.10621459687500 1.18808400937499 4.83323721250000 
 C -4.14400059687500 4.67722400937499 4.99601521250000 
 N -1.88896459687500 1.46803200937499 4.48303021250000 
 N -1.98566859687500 5.36359300937499 4.86344721250000 
 N -4.12146259687500 0.951199009374994 3.52585121250000 
 N -3.99647259687500 4.45348000937499 3.67196321250000 
 N -4.50273359687500 1.28111100937499 7.40207121250000 
 N -4.90503159687500 4.88803100937499 7.45102021250000 
 S -5.36818559687500 1.05280300937499 6.03046121250000 
 S -5.48942059687500 4.32167700937499 6.02430721250000 
 S -2.55613259687500 1.30793400937499 2.96608821250000 
 S -2.52581859687500 5.03334700937499 3.30037421250000 
 S -2.94919659687500 1.59904100937499 7.19040721250000 
 S -3.30980959687500 5.39778300937499 7.46511721250000 
