16

 C -3.03694691875000 1.59009640625000 5.48973244375000 
 C -3.07495091875000 5.31549640625000 5.51235044375000 
 C -4.26728591875000 1.19911940625000 4.78874444375000 
 C -4.30651691875000 5.04629040625000 4.80642344375000 
 N -1.98528991875000 1.80626240625000 4.69290444375000 
 N -2.02527891875000 5.32994340625000 4.69455244375000 
 N -4.09239191875000 0.954282406249999 3.48167744375000 
 N -4.16218691875000 4.81831840625000 3.47955044375000 
 N -4.83137391875000 1.39735840625000 7.38656444375000 
 N -4.76221191875000 5.08907340625000 7.36152544375000 
 S -5.57428991875000 0.990097406249999 5.96074244375000 
 S -5.62641791875000 4.86914540625000 5.97525144375000 
 S -2.52829291875000 1.37115340625000 3.16638544375000 
 S -2.57997091875000 5.10495740625000 3.18051344375000 
 S -3.18647991875000 1.78070140625000 7.24338144375000 
 S -3.13641091875000 5.50616340625000 7.22534944375000 
