16

 C -3.18209640312500 1.52729955312500 5.46235480625000 
 C -2.98945240312500 5.11621555312500 5.51111280625000 
 C -4.46452740312500 1.42097455312500 4.81795480625000 
 C -4.28489540312500 4.85713455312500 4.89331080625000 
 N -2.14167040312500 1.52941855312500 4.64080480625000 
 N -1.96718940312500 5.29599955312500 4.65942380625000 
 N -4.40620940312500 1.49440555312500 3.49093680625000 
 N -4.26347040312500 5.01519155312500 3.58976080625000 
 N -4.87208740312500 1.48825155312500 7.35289680625000 
 N -4.76731440312500 4.68129755312500 7.45108580625000 
 S -5.76778340312500 1.37137755312500 6.00126080625000 
 S -5.55375840312500 4.42176055312500 5.97753380625000 
 S -2.77176740312500 1.69793355312500 3.09815280625000 
 S -2.68955040312500 5.29578955312500 3.12776880625000 
 S -3.21692040312500 1.65571955312500 7.13963180625000 
 S -3.10010840312500 5.03088355312500 7.26975180625000 
