16

 C -3.29432077500000 0.928471418749998 5.46437910937500 
 C -3.25930877500000 5.05732541875000 5.73110510937500 
 C -4.50675677500000 0.722569418749998 4.78525710937500 
 C -4.40424577500000 4.52520341875000 5.06857810937500 
 N -2.22029277500000 1.19491441875000 4.72508210937500 
 N -2.26740177500000 5.28231841875000 4.89516210937500 
 N -4.36314677500000 0.711720418749999 3.47401310937500 
 N -4.34129977500000 4.36879341875000 3.76040810937500 
 N -5.05991677500000 0.628457418749998 7.32209110937500 
 N -4.95264977500000 4.67552941875000 7.64188210937500 
 S -5.83378077500000 0.359738418749998 5.82627610937500 
 S -5.67041677500000 4.20818741875000 6.21769310937500 
 S -2.77179477500000 1.21318341875000 3.15614010937500 
 S -2.78153677500000 4.82374841875000 3.38556310937500 
 S -3.43949677500000 0.834821418749998 7.15203910937500 
 S -3.35339977500000 5.16485841875000 7.45416810937500 
