16

 C -3.02615727187500 1.31152459687500 5.26132301562500 
 C -2.87019027187500 5.11842459687500 5.57897501562500 
 C -4.26729527187500 0.732338596874997 4.58681501562500 
 C -4.15543227187500 4.57391759687500 5.12269101562500 
 N -2.05605927187500 1.76815859687500 4.47634101562500 
 N -1.99600627187500 5.29696059687500 4.59642801562500 
 N -4.18374927187500 0.849300596874997 3.25003701562500 
 N -4.26457627187500 4.38824659687500 3.81955901562500 
 N -4.69346327187500 0.614976596874997 7.13398301562500 
 N -4.53890927187500 5.08419659687500 7.63794901562500 
 S -5.48618827187500 0.200356596874997 5.69175901562500 
 S -5.37535927187500 4.50989659687500 6.33492401562500 
 S -2.68306927187500 1.54603659687500 2.97383601562500 
 S -2.72033527187500 4.80344659687500 3.17140101562500 
 S -3.09753727187500 1.24450859687500 6.99128401562500 
 S -2.92528727187500 5.41705459687500 7.35996301562500 
