16

 C -3.21330180000000 1.28880678125000 5.39692350312500 
 C -3.05117680000000 4.88227478125000 5.52426150312500 
 C -4.35330280000000 0.716984781249999 4.67642150312500 
 C -4.25948480000000 4.40020378125000 4.86742150312500 
 N -2.15664180000000 1.50219578125000 4.63115950312500 
 N -1.96837380000000 4.80886178125000 4.73983850312500 
 N -4.13047480000000 0.466673781249999 3.39102450312500 
 N -4.15912980000000 4.08825978125000 3.57959850312500 
 N -5.07024580000000 1.03959578125000 7.16296250312500 
 N -4.91369180000000 5.00767678125000 7.26972750312500 
 S -5.69117780000000 0.402273781249999 5.74719550312500 
 S -5.68008980000000 4.46407578125000 5.89468650312500 
 S -2.55372480000000 1.00057778125000 3.09021950312500 
 S -2.53614180000000 4.37766678125000 3.25440050312500 
 S -3.51172480000000 1.70500178125000 7.05841150312500 
 S -3.30553680000000 5.45917278125000 7.11104650312500 
