16

 C -3.21101680625000 1.43137565625000 5.49402149375000 
 C -3.23166480625000 5.02601165625000 5.69807449375000 
 C -4.49328680625000 1.02571765625000 4.92702349375000 
 C -4.33393280625000 4.37186065625000 5.03149849375000 
 N -2.17705980625000 1.55620565625000 4.65607949375000 
 N -2.20920280625000 5.24081565625000 4.85070849375000 
 N -4.39169680625000 0.826605656249997 3.63376649375000 
 N -4.23408380625000 4.20915965625000 3.70187949375000 
 N -4.91753480625000 1.44079465625000 7.43238249375000 
 N -4.87470280625000 4.72362365625000 7.52430049375000 
 S -5.78837480625000 0.915347656249997 6.03918649375000 
 S -5.61314880625000 4.24128265625000 6.17300549375000 
 S -2.87330580625000 1.22270565625000 3.13272449375000 
 S -2.66948280625000 4.70996865625000 3.35078349375000 
 S -3.27518180625000 1.72506365625000 7.15835949375000 
 S -3.36969080625000 5.32576965625000 7.38205649375000 
