16

 C -3.17373735937500 1.24673232187500 5.56288781250000 
 C -3.06222135937500 5.06157832187500 5.61302281250000 
 C -4.39838135937500 0.852631321875001 5.00831981250000 
 C -4.28663835937500 4.60083432187500 4.98951981250000 
 N -2.14505835937500 1.38175832187500 4.76515681250000 
 N -2.08202735937500 5.35959932187500 4.76857381250000 
 N -4.27125635937500 0.576505321875001 3.72953081250000 
 N -4.21563135937500 4.51493832187500 3.66058481250000 
 N -4.96265035937500 1.15578332187500 7.41708481250000 
 N -4.84072635937500 4.66397132187500 7.44869481250000 
 S -5.70129135937500 0.567130321875001 6.04462481250000 
 S -5.63319035937500 4.36964532187500 5.99104181250000 
 S -2.78402235937500 1.07823332187500 3.26168081250000 
 S -2.74224935937500 5.04958332187500 3.19372281250000 
 S -3.32137935937500 1.49416032187500 7.23089981250000 
 S -3.21894635937500 5.18149832187500 7.34777281250000 
