16

 C -3.43260838125000 1.29025452187500 5.46571653125000 
 C -3.29730638125000 5.15337552187500 5.87074553125000 
 C -4.57734138125000 0.848038521874998 4.71873453125000 
 C -4.46411438125000 4.72071252187500 5.16879553125000 
 N -2.41376838125000 1.59152752187500 4.68578453125000 
 N -2.28012138125000 5.31130152187500 5.01223653125000 
 N -4.49688538125000 0.915500521874998 3.42207953125000 
 N -4.44218738125000 4.77734052187500 3.81933953125000 
 N -5.26340238125000 0.979927521874998 7.18039653125000 
 N -4.97019038125000 4.78621352187500 7.69010353125000 
 S -5.88294638125000 0.396004521874999 5.74203153125000 
 S -5.73191538125000 4.36027852187500 6.27305953125000 
 S -2.92411738125000 1.27226352187500 3.10488953125000 
 S -2.89172838125000 5.13873152187500 3.47063953125000 
 S -3.59409038125000 1.32568752187500 7.17259053125000 
 S -3.40128138125000 5.25039552187500 7.61603853125000 
