16

 C -3.10494909687500 1.67123585312500 5.41160010625000 
 C -2.93711409687500 5.25221185312500 5.49944810625000 
 C -4.36162509687500 1.31901185312500 4.76139210625000 
 C -4.21753609687500 4.95644785312500 4.87758610625000 
 N -2.00236409687500 1.82800285312500 4.66237710625000 
 N -1.98234209687500 5.52845285312500 4.60517910625000 
 N -4.16429509687500 1.13349685312500 3.44271010625000 
 N -4.18363209687500 4.84619485312500 3.56649710625000 
 N -4.87294409687500 1.30647585312500 7.29437610625000 
 N -4.77267309687500 4.95512085312500 7.34545410625000 
 S -5.72197809687500 1.15120885312500 5.88161910625000 
 S -5.60498509687500 4.91995085312500 5.96116410625000 
 S -2.61636209687500 1.42983685312500 3.13061810625000 
 S -2.65861709687500 5.16529185312500 3.10192910625000 
 S -3.18980709687500 1.60305185312500 7.17022310625000 
 S -3.15783509687500 5.25573085312500 7.24435610625000 
