16

 C -3.08598821562500 1.25687833125000 5.66362851562500 
 C -3.03072021562500 4.85822833125000 5.56195751562500 
 C -4.34449621562500 0.859672331250001 5.14189551562500 
 C -4.24173421562500 4.41084333125000 4.95590451562500 
 N -2.06348021562500 1.19985033125000 4.78795551562500 
 N -2.00998121562500 4.82557133125000 4.71270151562500 
 N -4.33853521562500 0.564229331250001 3.84834251562500 
 N -4.20544221562500 4.07687433125000 3.65497451562500 
 N -4.80183521562500 1.26320033125000 7.57500751562500 
 N -4.78837021562500 4.82494433125000 7.45218951562500 
 S -5.66537121562500 0.838003331250001 6.24824851562500 
 S -5.54731921562500 4.37622233125000 5.98980251562500 
 S -2.79400921562500 0.865169331250001 3.30085451562500 
 S -2.62446821562500 4.33743133125000 3.23444251562500 
 S -3.17352521562500 1.63761433125000 7.39407051562500 
 S -3.15511221562500 5.25844733125000 7.24053951562500 
