16

 C -3.21031595625000 1.60881476250000 5.63906204375000 
 C -2.97531495625000 5.43486976250000 5.51121104375000 
 C -4.37190495625000 1.24799676250000 4.85611304375000 
 C -4.25096795625000 4.96893276250000 4.97075204375000 
 N -2.13930695625000 1.90266776250000 4.89583604375000 
 N -1.96235195625000 5.37738676250000 4.64308504375000 
 N -4.18520195625000 1.30670276250000 3.55687104375000 
 N -4.24154795625000 4.75581176250000 3.67179304375000 
 N -5.03963595625000 0.787872762499999 7.26813104375000 
 N -4.77817295625000 5.18498376250000 7.41670904375000 
 S -5.77708395625000 0.771266762499999 5.71366004375000 
 S -5.56425695625000 4.84622876250000 6.04910704375000 
 S -2.62932595625000 1.72691776250000 3.29328104375000 
 S -2.67785195625000 5.00328876250000 3.18015904375000 
 S -3.40833595625000 1.24406676250000 7.28796704375000 
 S -3.20861095625000 5.43623376250000 7.25431204375000 
