16

 C -3.08593252500000 1.56644474687500 5.69747208437500 
 C -3.14009852500000 4.87851174687500 5.60674608437500 
 C -4.24240352500000 1.19324474687500 4.91180108437500 
 C -4.29545652500000 4.42647874687500 4.88679508437500 
 N -1.94118452500000 1.63090874687500 5.08780908437500 
 N -1.99086152500000 4.92688074687500 4.86190408437500 
 N -3.94389152500000 0.958252746875003 3.63954908437500 
 N -4.06413552500000 4.08926574687500 3.64751908437500 
 N -4.96790052500000 1.16017774687500 7.46690908437500 
 N -5.19774552500000 4.65707374687500 7.16486208437500 
 S -5.71369452500000 1.10744874687500 5.91709508437500 
 S -5.83133452500000 4.38815074687500 5.61939308437500 
 S -2.25751152500000 1.33876974687500 3.48357108437500 
 S -2.44760052500000 4.36680274687500 3.34138808437500 
 S -3.29097252500000 1.60094774687500 7.37494408437500 
 S -3.64463552500000 4.99542374687500 7.32001908437500 
