16

 C -3.13083390000000 1.02361902187500 5.43746801250000 
 C -2.82270190000000 5.14048902187500 5.44307501250000 
 C -4.46192290000000 0.697414021875002 4.93250701250000 
 C -4.00311590000000 4.76137402187500 4.68918301250000 
 N -2.21727890000000 1.16931702187500 4.48394001250000 
 N -1.73880890000000 5.32729702187500 4.70573501250000 
 N -4.49643690000000 0.477853021875002 3.62837601250000 
 N -3.77575790000000 4.78547302187500 3.37278701250000 
 N -4.81419790000000 1.23268702187500 7.49686301250000 
 N -4.73414990000000 4.97475602187500 7.15272901250000 
 S -5.68876990000000 0.706456021875002 6.19115201250000 
 S -5.41297190000000 4.66837102187500 5.69503801250000 
 S -2.96685090000000 0.777039021875003 3.05282001250000 
 S -2.18578990000000 5.16690502187500 3.08532001250000 
 S -3.19721790000000 1.44283102187500 7.13126101250000 
 S -3.07079290000000 5.23510402187500 7.20758601250000 
