16

 C -3.17888788437500 1.35992837812500 5.29394702812500 
 C -2.99590988437500 4.97086437812500 5.59938302812500 
 C -4.23202988437500 0.616907378125002 4.65306702812500 
 C -4.27223088437500 4.55023237812500 5.03538502812500 
 N -2.22591388437500 1.71724437812500 4.42046002812500 
 N -2.05152088437500 5.10613237812500 4.69438502812500 
 N -4.06947588437500 0.501864378125002 3.32428802812500 
 N -4.26962088437500 4.49898837812500 3.69832902812500 
 N -4.89720288437500 0.904643378125003 7.18298902812500 
 N -4.55054288437500 4.81798937812500 7.60571602812500 
 S -5.56747988437500 0.308851378125002 5.76963302812500 
 S -5.52001888437500 4.42640037812500 6.30029202812500 
 S -2.56408288437500 1.12335837812500 2.91214002812500 
 S -2.69559688437500 4.76178537812500 3.21614202812500 
 S -3.38815888437500 1.52989237812500 7.00515202812500 
 S -2.95617988437500 5.04429337812500 7.33243702812500 
