16

 C -3.14852833125001 1.52977931250001 5.29114598750000 
 C -3.27005233125001 5.32662331250001 5.79078298750000 
 C -4.27659733125001 0.826525312500006 4.74947698750000 
 C -4.39737733125001 4.73524631250001 5.09164998750000 
 N -2.08993933125001 1.67682531250001 4.51106898750000 
 N -2.17108933125001 5.55022731250001 5.00453698750000 
 N -4.04109533125001 0.315192312500006 3.56403198750000 
 N -4.19865633125001 4.52685331250001 3.76542598750000 
 N -4.86331033125001 1.41969831250000 7.17827798750000 
 N -5.07925233125001 5.10909731250001 7.60227798750000 
 S -5.64362033125001 0.815603312500006 5.85120298750000 
 S -5.72988333125001 4.61111431250001 6.13742398750000 
 S -2.50304333125001 0.899901312500005 3.04723798750000 
 S -2.65746233125001 5.00535631250001 3.49732798750000 
 S -3.29939133125001 1.95858431250001 6.96941498750000 
 S -3.48660633125001 5.58751131250001 7.46759898750000 
