16

 C -3.20176733437500 1.20977560937500 5.35500688125000 
 C -2.86785533437500 5.27380360937500 5.57969288125000 
 C -4.30504233437500 0.643564609374995 4.63973988125000 
 C -4.18658233437500 5.00223060937500 5.05562888125000 
 N -2.15516933437500 1.64859060937500 4.64863388125000 
 N -1.91598533437500 5.31751860937500 4.62308988125000 
 N -4.09436433437500 0.709822609374997 3.31569088125000 
 N -4.30141833437500 4.88121960937500 3.71754488125000 
 N -4.86753633437500 0.833398609374997 7.16580488125000 
 N -4.66150533437500 4.92844960937500 7.60661888125000 
 S -5.62616533437500 0.331300609374996 5.80677388125000 
 S -5.47386033437500 4.92920260937500 6.16935988125000 
 S -2.57714933437500 1.38119460937500 3.09493388125000 
 S -2.77978833437500 5.00616160937500 3.20572488125000 
 S -3.37610333437500 1.51181760937500 7.05462288125000 
 S -3.01475533437500 5.41757560937500 7.32780088125000 
