16

 C -3.16018683437500 1.61063079687500 5.37433710000000 
 C -3.04705783437500 4.92314179687500 5.48579510000000 
 C -4.31375783437500 1.16303779687500 4.68764010000000 
 C -4.29112583437500 4.77672279687500 4.76720310000000 
 N -2.11622883437500 1.95227379687500 4.59747410000000 
 N -2.01382183437500 5.13138379687500 4.67553210000000 
 N -4.20342783437500 1.17835879687500 3.36030310000000 
 N -4.16999283437500 4.73777279687500 3.45081710000000 
 N -4.98645583437500 1.08573379687500 7.20901110000000 
 N -4.88748283437500 4.99656679687500 7.37224310000000 
 S -5.74753883437500 0.901216796875000 5.75971110000000 
 S -5.66804083437500 4.68443679687500 5.89507010000000 
 S -2.66198983437500 1.58345479687500 3.02066410000000 
 S -2.56931683437500 4.99867979687500 3.10553810000000 
 S -3.43473983437500 1.63196279687500 7.07221310000000 
 S -3.18368483437500 4.92929179687500 7.18491510000000 
