16

 C -2.95260079062500 1.40170407500000 5.43333877812500 
 C -3.33666279062500 5.39309907500000 5.31804677812500 
 C -4.23644179062500 0.986325075000001 4.81095377812500 
 C -4.38628979062500 4.53797807500000 4.76981777812500 
 N -1.89562079062500 1.48702907500000 4.57136377812500 
 N -2.30393279062500 5.65583707500000 4.51157477812500 
 N -4.08463979062500 0.731755075000001 3.51157977812500 
 N -4.09576179062500 4.05053707500000 3.56492677812500 
 N -4.67320679062500 0.981871075000001 7.25905077812500 
 N -5.14483579062500 5.36870107500000 7.11912577812500 
 S -5.61594679062500 0.973043075000001 5.88021577812500 
 S -5.71564679062500 4.41658307500000 5.85838377812500 
 S -2.56766379062500 1.04789407500000 3.09028777812500 
 S -2.56233279062500 4.74239807500000 3.15195177812500 
 S -3.02672379062500 1.42032807500000 7.13759177812500 
 S -3.61110979062500 5.91126307500000 6.94477277812500 
