16

 C -3.15308068437500 1.68777462812500 5.40636065625000 
 C -3.05916468437500 5.06772662812500 5.58817165625000 
 C -4.38730068437500 1.27957562812500 4.80904065625000 
 C -4.24074068437500 4.50932962812500 4.91890565625000 
 N -2.14343468437500 1.85393962812500 4.54840865625000 
 N -2.04340868437500 5.15867362812500 4.75297765625000 
 N -4.35132468437500 1.28547862812500 3.48501565625000 
 N -4.17856168437500 4.39011062812500 3.58218265625000 
 N -4.97585868437500 1.18977362812500 7.29563265625000 
 N -4.88378368437500 4.67366162812500 7.47102365625000 
 S -5.74335968437500 0.928700628124999 5.82563065625000 
 S -5.61985568437500 4.46721762812500 6.00237865625000 
 S -2.75837768437500 1.57500562812500 3.06273565625000 
 S -2.59315968437500 4.73142962812500 3.22777765625000 
 S -3.36960668437500 1.69500662812500 7.12869565625000 
 S -3.35210568437500 5.31628962812500 7.33838865625000 
