16

 C -2.99466434062500 1.75164109062500 5.56965755937500 
 C -3.10028734062500 5.37676809062500 5.55305955937500 
 C -4.13557734062500 1.07437109062500 4.96189255937500 
 C -4.31149034062500 4.85206309062500 5.00116255937500 
 N -1.89743334062500 1.86571009062500 4.78736055937500 
 N -2.05647634062500 5.53049009062500 4.75376455937500 
 N -3.86394834062500 0.631901090625004 3.72475955937500 
 N -4.12230934062500 4.52907709062500 3.72704755937500 
 N -4.77215534062500 1.42983709062500 7.52285955937500 
 N -4.85466634062500 5.33622509062500 7.50150055937500 
 S -5.44863134062500 0.775427090625003 6.19533655937500 
 S -5.69773934062500 4.95764109062500 6.07651555937500 
 S -2.35567734062500 1.20185709062500 3.31621555937500 
 S -2.62464934062500 4.99032409062500 3.30550655937500 
 S -3.25457534062500 2.12734909062500 7.32034655937500 
 S -3.22827234062500 5.69786509062500 7.23686855937500 
