16

 C -3.21826265000000 1.41600766562500 5.37018151875000 
 C -3.29176665000000 5.15177566562500 5.39425451875000 
 C -4.30477365000000 0.699002665625001 4.90304251875000 
 C -4.53447565000000 4.63088866562500 4.85368051875000 
 N -2.18860265000000 1.50641466562500 4.52232151875000 
 N -2.28131665000000 5.13235566562500 4.53804251875000 
 N -4.21133665000000 0.266927665625001 3.64240351875000 
 N -4.46008265000000 4.28968066562500 3.56682651875000 
 N -4.88292765000000 1.28408166562500 7.33263851875000 
 N -4.84574665000000 4.93404766562500 7.40492151875000 
 S -5.55547865000000 0.391362665625000 6.10337351875000 
 S -5.79544365000000 4.75620466562500 6.10164151875000 
 S -2.74046765000000 0.858157665625001 3.12313351875000 
 S -2.90909365000000 4.67542666562500 3.09742551875000 
 S -3.35799365000000 1.92059266562500 7.01938651875000 
 S -3.27325965000000 5.42003366562500 7.09741851875000 
