16

 C -3.12576624062500 1.07939388750000 5.57794932187500 
 C -3.48617824062500 5.04698788750000 5.16288232187500 
 C -4.34937224062500 0.678341887499999 4.97421732187500 
 C -4.54708124062500 4.22422488750000 4.59428232187500 
 N -2.08853324062500 1.25648588750000 4.72664332187500 
 N -2.48984824062500 5.22211988750000 4.28622732187500 
 N -4.31950724062500 0.570125887499999 3.63885232187500 
 N -4.42756224062500 3.96154088750000 3.28249732187500 
 N -4.83111024062500 0.770268887499999 7.51815032187500 
 N -5.25901024062500 4.78610888750000 6.99118232187500 
 S -5.73250524062500 0.571038887499999 6.14122632187500 
 S -5.84457624062500 3.95744888750000 5.65329632187500 
 S -2.79338924062500 1.11977388750000 3.20039332187500 
 S -2.97167724062500 4.56052588750000 2.83220532187500 
 S -3.18061524062500 1.00516588750000 7.33719932187500 
 S -3.64787924062500 5.21074688750000 6.92343332187500 
