16

 C -3.10876329687500 1.14437122500000 5.41212302812500 
 C -2.77405329687500 5.17839322500000 5.41564702812500 
 C -4.42765529687500 0.714632224999998 4.90491602812500 
 C -4.02122229687500 4.87653222500000 4.72774202812500 
 N -2.17664829687500 1.10523922500000 4.47895502812500 
 N -1.68936029687500 5.35541922500000 4.65051402812500 
 N -4.47333529687500 0.491586224999998 3.61483102812500 
 N -3.83870729687500 4.67088822500000 3.42536102812500 
 N -4.77751729687500 1.04355622500000 7.41146002812500 
 N -4.68723229687500 4.82946522500000 7.17250702812500 
 S -5.71600229687500 0.814965224999998 6.04849202812500 
 S -5.43289429687500 4.64158722500000 5.66072402812500 
 S -2.94165329687500 0.715740224999998 3.03101402812500 
 S -2.27542429687500 5.10497822500000 3.10704402812500 
 S -3.21187029687500 1.58950322500000 7.11732902812500 
 S -3.07266429687500 5.34330522500000 7.13738202812500 
