16

 C -3.26165075312500 0.891694415625003 5.46886088437500 
 C -3.22220375312500 4.99644141562500 5.71704888437500 
 C -4.49495275312500 0.689465415625003 4.76845288437500 
 C -4.42795375312500 4.56687341562500 5.07576488437500 
 N -2.22586975312500 1.21693041562500 4.71724688437500 
 N -2.24196475312500 5.27569041562500 4.88307588437500 
 N -4.33458575312500 0.724140415625003 3.44177588437500 
 N -4.36171375312500 4.36894741562500 3.74639788437500 
 N -5.08434175312500 0.640504415625002 7.32523988437500 
 N -4.94593575312500 4.75593541562500 7.62750088437500 
 S -5.83182175312500 0.330268415625003 5.84617088437500 
 S -5.68830075312500 4.20353041562500 6.24918188437500 
 S -2.74651975312500 1.25652141562500 3.14805988437500 
 S -2.78553475312500 4.79492341562500 3.38273788437500 
 S -3.46378375312500 0.814457415625002 7.12065988437500 
 S -3.35489475312500 5.11908441562500 7.44348188437500 
