16

 C -2.80623801250000 1.40294369687500 5.71142345937500 
 C -3.01856101250000 4.75273769687500 5.43791045937500 
 C -3.98998201250000 0.691536696875000 5.18510445937500 
 C -4.29825901250000 4.39427969687500 4.80665945937500 
 N -1.84861601250000 1.48903769687500 4.79267345937500 
 N -2.05197401250000 4.76455169687500 4.56330745937500 
 N -3.86593701250000 0.316051696874999 3.89740745937500 
 N -4.24496101250000 4.07350769687500 3.51537945937500 
 N -4.72273101250000 1.52659769687500 7.58326945937500 
 N -4.82333401250000 5.08516069687500 7.24988445937500 
 S -5.35708701250000 0.838993696875000 6.21549745937500 
 S -5.67017001250000 4.60141569687500 5.88950345937500 
 S -2.39582201250000 0.805303696875000 3.37497145937500 
 S -2.67524701250000 4.44204669687500 3.06893745937500 
 S -3.08512601250000 1.86085669687500 7.35825045937500 
 S -3.22914201250000 5.38730269687500 7.10629645937500 
