16

 C -3.31641300625000 0.860134890624997 5.45799175312500 
 C -3.26888100625000 5.19853289062500 5.48614275312500 
 C -4.52619400625000 0.594082890624997 4.75809375312500 
 C -4.41049400625000 4.65326189062500 4.77765175312500 
 N -2.26474900625000 1.13439089062500 4.71736175312500 
 N -2.19922700625000 5.42029589062500 4.67628975312500 
 N -4.33722600625000 0.640349890624997 3.44905675312500 
 N -4.29446800625000 4.57706889062500 3.45268975312500 
 N -5.12060300625000 0.743482890624997 7.21951975312500 
 N -5.03786700625000 4.53206889062500 7.24162675312500 
 S -5.90336100625000 0.573484890624997 5.78275475312500 
 S -5.72053200625000 4.02009089062500 5.78904675312500 
 S -2.76475800625000 0.919114890624997 3.12621475312500 
 S -2.81574000625000 5.10410689062500 3.09236775312500 
 S -3.50101700625000 0.914856890624997 7.17808175312500 
 S -3.58427800625000 5.37762189062500 7.20932675312500 
