16

 C -3.14869709375000 1.23815207812500 5.60580284062500 
 C -3.63005609375000 4.98385707812500 5.05768284062500 
 C -4.38018309375000 0.711205078125000 5.01556184062500 
 C -4.68430309375000 4.21009507812500 4.48523484062500 
 N -2.17266409375000 1.46409007812500 4.70340784062500 
 N -2.61413509375000 5.25055307812500 4.25832684062500 
 N -4.39237309375000 0.667164078125000 3.68488984062500 
 N -4.50344709375000 3.96106207812500 3.20769984062500 
 N -4.73262009375000 0.790712078125000 7.54962484062500 
 N -5.28241909375000 4.64328007812500 6.91653484062500 
 S -5.61161509375000 0.535203078125000 6.19435184062500 
 S -6.00249709375000 3.83457607812500 5.68447284062500 
 S -2.81968009375000 1.05869807812500 3.23363684062500 
 S -3.02297909375000 4.56529707812500 2.78665484062500 
 S -3.21396809375000 1.38255507812500 7.28870584062500 
 S -3.76213509375000 5.21659107812500 6.73411184062500 
