16

 C -3.30145764687500 0.993447131250003 5.41993140937500 
 C -3.26517364687500 5.17530513125000 5.41536940937500 
 C -4.52702864687500 0.744456131250002 4.72619540937500 
 C -4.37200264687500 4.58037413125000 4.72398140937500 
 N -2.17749464687500 1.12561413125000 4.68869640937500 
 N -2.26756964687500 5.54064713125000 4.56388840937500 
 N -4.37258464687500 0.640532131250002 3.38818140937500 
 N -4.29307364687500 4.54961413125000 3.40902740937500 
 N -5.16663064687500 0.779627131250002 7.27335940937500 
 N -5.11053764687500 4.63337913125000 7.17120740937500 
 S -5.94654464687500 0.492885131250003 5.80103940937500 
 S -5.57595464687500 3.93606413125000 5.70845140937500 
 S -2.69740264687500 0.919604131250003 3.15796840937500 
 S -2.78590764687500 5.20201413125000 3.03072940937500 
 S -3.52300764687500 1.00774113125000 7.15066340937500 
 S -3.61861064687500 5.38079713125000 7.09227540937500 
