16

 C -3.26691314062500 1.11584099062500 5.46380345937500 
 C -2.80490514062500 5.09967699062500 5.47357045937500 
 C -4.52752014062500 0.662027990625001 4.95059545937500 
 C -3.96445714062500 4.80748199062500 4.67184845937500 
 N -2.28562914062500 1.19079199062500 4.56492645937500 
 N -1.73673114062500 5.34594799062500 4.73380445937500 
 N -4.56062114062500 0.466936990625001 3.61648645937500 
 N -3.82619614062500 4.85828799062500 3.34916245937500 
 N -4.78119714062500 1.37472199062500 7.42355145937500 
 N -4.76513914062500 5.08636699062500 7.19674645937500 
 S -5.70891514062500 0.619403990625001 6.23368745937500 
 S -5.40131814062500 4.65126899062500 5.70337645937500 
 S -3.00567614062500 0.842564990625001 3.11665945937500 
 S -2.18246014062500 5.16053899062500 3.14094745937500 
 S -3.12089114062500 1.32686099062500 7.19116945937500 
 S -3.11157714062500 5.13722099062500 7.17275745937500 
