16

 C -3.10629274062500 1.53183710000000 5.64178268750000 
 C -3.18705374062500 4.88384210000000 5.47174668750000 
 C -4.39473974062500 1.32563010000000 5.08083868750000 
 C -4.45379274062500 4.67849610000000 4.80155868750000 
 N -2.13846974062500 1.62378910000000 4.75252568750000 
 N -2.12921074062500 4.98311410000000 4.64989868750000 
 N -4.45170574062500 1.17221610000000 3.77659068750000 
 N -4.32419874062500 4.64609810000000 3.47231768750000 
 N -4.77865474062500 1.65254410000000 7.60403068750000 
 N -5.00246374062500 4.82784210000000 7.31499568750000 
 S -5.67621774062500 1.25816710000000 6.21295068750000 
 S -5.82045474062500 4.57003010000000 5.90183868750000 
 S -2.93775874062500 1.44593110000000 3.26028368750000 
 S -2.76857874062500 4.87007210000000 3.09571068750000 
 S -3.14061474062500 1.79726710000000 7.34572268750000 
 S -3.36921974062500 5.04063010000000 7.22323868750000 
