16

 C -3.10356399687500 1.47538189687500 5.36471219062500 
 C -2.96986899687500 5.22391989687500 5.69990719062500 
 C -4.32243699687500 1.06772089687500 4.75974519062500 
 C -4.20459499687500 4.75934089687500 5.09704219062500 
 N -1.97405299687500 1.38756089687500 4.66355119062500 
 N -1.97117599687500 5.36424889687500 4.85325619062500 
 N -4.06793799687500 0.559614896875003 3.52027419062500 
 N -4.13794499687500 4.56249189687500 3.78171019062500 
 N -4.76396499687500 1.35302689687500 7.29078119062500 
 N -4.84564899687500 4.85924589687500 7.55759819062500 
 S -5.69137199687500 1.12115689687500 5.94118119062500 
 S -5.59814899687500 4.79048689687500 6.04516319062500 
 S -2.45842199687500 0.786948896875002 3.16089319062500 
 S -2.65461399687500 4.92970189687500 3.31544119062500 
 S -3.12283199687500 1.62034389687500 7.06913819062500 
 S -3.29428699687500 5.38747689687500 7.43913119062500 
