16

 C -3.24454839687500 1.35150268437500 5.25691475000000 
 C -3.14934239687500 5.03981468437500 5.38974075000000 
 C -4.50970639687500 0.892649684374999 4.70971775000000 
 C -4.40115939687500 4.98475768437500 4.63237975000000 
 N -2.27409039687500 1.61243068437500 4.36868175000000 
 N -2.08176739687500 5.14749068437500 4.62485175000000 
 N -4.41946539687500 0.809999684375000 3.37855275000000 
 N -4.29050839687500 5.24481968437500 3.31832975000000 
 N -5.02428839687500 1.23005168437500 7.21038275000000 
 N -4.87932039687500 4.73737868437500 7.19525975000000 
 S -5.83708939687500 0.648684684375000 5.87389175000000 
 S -5.69057339687500 4.93519268437500 5.81774775000000 
 S -2.85943539687500 1.22042568437500 2.91406475000000 
 S -2.62033039687500 5.33966568437500 3.09477675000000 
 S -3.38847539687500 1.56291568437500 6.98625275000000 
 S -3.29815239687500 5.01049168437500 7.10746575000000 
