16

 C -3.03459679687500 1.26767004687500 5.65047238750000 
 C -3.08875879687500 5.10780604687500 5.40876138750000 
 C -4.24191579687500 0.832299046875000 4.96869438750000 
 C -4.18733979687500 4.35960104687500 4.88652538750000 
 N -1.97217879687500 1.37876404687500 4.85254838750000 
 N -2.06654579687500 5.32661904687500 4.55711938750000 
 N -4.00621579687500 0.540332046874999 3.65896538750000 
 N -3.93031579687500 3.77609304687500 3.70850838750000 
 N -4.81341179687500 0.915979046874999 7.51505438750000 
 N -4.82449679687500 5.18101004687500 7.25916638750000 
 S -5.56177879687500 0.646288046874999 6.07919138750000 
 S -5.40039779687500 4.16632004687500 6.12237338750000 
 S -2.39735479687500 1.02003604687500 3.30376238750000 
 S -2.49930279687500 4.46282104687500 3.16690838750000 
 S -3.23855279687500 1.61156604687500 7.38250038750000 
 S -3.35191979687500 5.82929704687500 6.99384938750000 
