16

 C -3.11576754375000 1.41088459062500 5.56610535000000 
 C -3.22135654375000 5.06829759062500 5.16430635000000 
 C -4.40825154375000 0.899348590625000 4.98210235000000 
 C -4.33874454375000 4.27451959062500 4.65993335000000 
 N -2.13309654375000 1.47465059062500 4.67161335000000 
 N -2.17486554375000 5.10994459062500 4.33641535000000 
 N -4.33436754375000 0.722489590625000 3.66452335000000 
 N -4.18119354375000 3.90601359062500 3.39026535000000 
 N -4.77355854375000 1.28097959062500 7.48157935000000 
 N -4.88888454375000 5.03306959062500 7.04658135000000 
 S -5.66347954375000 0.871356590625000 6.14591535000000 
 S -5.65004454375000 4.21988959062500 5.76825735000000 
 S -2.77067854375000 0.983176590625001 3.22401535000000 
 S -2.63970954375000 4.38180359062500 2.95956435000000 
 S -3.23959954375000 1.85160459062500 7.24126635000000 
 S -3.33732854375000 5.53554059062500 6.82040435000000 
