16

 C -3.16345568437500 1.35199501875000 5.52356016562500 
 C -3.09921668437500 4.94381801875000 5.69767116562500 
 C -4.41472468437500 0.894200018750002 4.98875716562500 
 C -4.33394068437500 4.43903901875000 5.12126616562500 
 N -2.22072968437500 1.52275901875000 4.57517216562500 
 N -2.10757868437500 5.23301401875000 4.77367316562500 
 N -4.44651468437500 0.662711018750002 3.68346816562500 
 N -4.19309368437500 4.14164001875000 3.82774816562500 
 N -4.89573468437500 1.35632701875000 7.48102516562500 
 N -4.97422168437500 4.74137901875000 7.61915616562500 
 S -5.72692468437500 0.918676018750002 6.14546916562500 
 S -5.72427568437500 4.21711201875000 6.17736716562500 
 S -2.87475368437500 0.970777018750002 3.18971216562500 
 S -2.72417968437500 4.69120201875000 3.29690216562500 
 S -3.34593568437500 1.73418501875000 7.23466516562500 
 S -3.34695468437500 5.28756701875000 7.42611616562500 
