16

 C -3.21708236562500 1.30699157812500 5.27430541562500 
 C -2.92429136562500 5.25974557812500 5.34760541562500 
 C -4.48493736562500 0.920156578125003 4.71654741562500 
 C -4.12909836562500 4.87460457812500 4.65378241562500 
 N -2.16049936562500 1.21309857812500 4.47814241562500 
 N -1.85146036562500 5.41763057812500 4.58268241562500 
 N -4.39791336562500 0.574969578125002 3.43080041562500 
 N -3.93318236562500 4.57774557812500 3.34718241562500 
 N -4.91327036562500 1.34462657812500 7.27497041562500 
 N -4.68455236562500 4.86686557812500 7.24520041562500 
 S -5.78716536562500 0.911137578125002 5.94096341562500 
 S -5.42952236562500 4.44691757812500 5.80220341562500 
 S -2.77387536562500 0.637895578125002 3.03378241562500 
 S -2.29259236562500 4.92321857812500 3.05777641562500 
 S -3.28121136562500 1.56446357812500 6.99036141562500 
 S -3.11057736562500 5.49127457812500 7.12627141562500 
