16

 C -3.13903527812500 0.863599968750004 5.59396969375000 
 C -3.05994227812500 5.08452596875000 5.38165569375000 
 C -4.36592027812500 0.745850968750005 4.86987969375000 
 C -4.26112327812500 4.57640296875000 4.72087169375000 
 N -2.00328527812500 0.918053968750004 4.89346969375000 
 N -2.00973227812500 5.09774796875000 4.57989369375000 
 N -4.21505527812500 0.738699968750004 3.52674169375000 
 N -4.13205727812500 4.40869296875000 3.41670269375000 
 N -5.08572027812500 0.585851968750005 7.42974569375000 
 N -4.96319527812500 4.70237996875001 7.24409669375000 
 S -5.75784627812500 0.380787968750004 5.91826269375000 
 S -5.58834527812500 4.14877796875000 5.75718569375000 
 S -2.55151927812500 0.933131968750004 3.29506969375000 
 S -2.54774127812500 4.65066396875000 3.03429569375000 
 S -3.49113727812500 0.931442968750004 7.31427569375000 
 S -3.35385327812500 5.32816996875000 7.09107269375000 
