16

 C -3.26331685625000 1.11045794375000 5.45945837812500 
 C -2.81078385625000 5.10530194375000 5.46824437812500 
 C -4.52274885625000 0.660949943750000 4.94749737812500 
 C -3.96540585625000 4.79406294375000 4.67018837812500 
 N -2.27373085625000 1.19017994375000 4.56167437812500 
 N -1.73627285625000 5.34485794375000 4.73390537812500 
 N -4.56012385625000 0.465467943750000 3.60852837812500 
 N -3.82541285625000 4.85868794375000 3.34944937812500 
 N -4.78569885625000 1.36965294375000 7.42761437812500 
 N -4.76487785625000 5.08238494375000 7.19593237812500 
 S -5.70745685625000 0.623066943750000 6.23384437812500 
 S -5.39888585625000 4.65362794375000 5.70432437812500 
 S -3.00512485625000 0.838901943750001 3.11541237812500 
 S -2.17921385625000 5.16159094375000 3.13717137812500 
 S -3.12343085625000 1.33278194375000 7.18880737812500 
 S -3.10983485625000 5.14196594375000 7.17585937812500 
