16

 C -3.15742007187500 1.60440696250000 5.37065369375000 
 C -3.05246807187500 4.91772296250000 5.48664969375000 
 C -4.31610907187500 1.16300696250000 4.69081369375000 
 C -4.28953407187500 4.79270096250000 4.76600669375000 
 N -2.11383307187500 1.95181696250000 4.60256369375000 
 N -2.01811207187500 5.13563496250000 4.67263069375000 
 N -4.20059007187500 1.17002496250000 3.36348169375000 
 N -4.17534707187500 4.74627396250000 3.44196169375000 
 N -4.98058707187500 1.09101096250000 7.20692569375000 
 N -4.89061807187500 4.99944796250000 7.37248669375000 
 S -5.75166907187500 0.897812962500002 5.75695569375000 
 S -5.65810507187500 4.68749696250000 5.89446569375000 
 S -2.66458607187500 1.58015096250000 3.01549969375000 
 S -2.56926107187500 5.00141896250000 3.10099269375000 
 S -3.43512607187500 1.63006596250000 7.07253369375000 
 S -3.18635507187500 4.92246396250000 7.18459969375000 
