16

 C -3.00494933125000 1.25245360625000 5.57415036875000 
 C -2.97684033125000 5.22686860625000 5.52988336875000 
 C -4.17156233125000 0.949988606250000 4.80480336875000 
 C -4.23613533125000 4.94459060625000 4.84939536875000 
 N -1.86217733125000 1.22581460625000 4.86648736875000 
 N -1.92012233125000 5.20705560625000 4.71873536875000 
 N -3.94419233125000 0.844483606250001 3.48942236875000 
 N -4.06173333125000 4.68670360625000 3.58458036875000 
 N -4.92349033125000 1.32522060625000 7.18011636875000 
 N -4.75513933125000 5.24998860625000 7.35688836875000 
 S -5.63170033125000 0.731847606250001 5.79780336875000 
 S -5.61368333125000 4.86906760625000 5.92673936875000 
 S -2.30374833125000 1.03248660625000 3.23416436875000 
 S -2.45624733125000 4.86468960625000 3.13933836875000 
 S -3.28220933125000 1.51067360625000 7.21953036875000 
 S -3.09094433125000 5.48382660625000 7.23988936875000 
