16

 C -3.11231379062500 0.985361675000003 5.46038510937500 
 C -3.06383779062500 4.92780267500000 5.53024310937500 
 C -4.25946679062500 0.634432675000003 4.73980310937500 
 C -4.37131079062500 4.69197067500000 4.91490610937500 
 N -1.99954079062500 1.07732867500000 4.75257810937500 
 N -2.06713179062500 4.96564467500000 4.65564510937500 
 N -4.01273679062500 0.572865675000003 3.42394010937500 
 N -4.26806279062500 4.42244367500000 3.58572610937500 
 N -4.93344179062500 0.785906675000002 7.22864410937500 
 N -4.85921179062500 5.03707867500000 7.36464710937500 
 S -5.66232679062500 0.398775675000002 5.78757410937500 
 S -5.71261179062500 4.98742267500000 5.95103110937500 
 S -2.44610579062500 0.896784675000003 3.16981210937500 
 S -2.71289679062500 4.58543367500000 3.10680710937500 
 S -3.31432979062500 1.25782567500000 7.11514510937500 
 S -3.17171279062500 5.13561467500000 7.29341810937500 
