16

 C -2.95968685937500 1.38374633437500 5.55024026562500 
 C -3.10616785937500 5.26215933437500 5.19933926562500 
 C -4.17216385937500 0.965266334374998 4.84516726562500 
 C -4.32024785937500 4.70353533437500 4.61959626562500 
 N -1.89826585937500 1.30138833437500 4.81583826562500 
 N -2.10057085937500 5.42309233437500 4.34184626562500 
 N -3.94282085937500 0.659338334374997 3.57399326562500 
 N -4.24715385937500 4.55604333437500 3.28771926562500 
 N -4.88449585937500 1.39063433437500 7.20980526562500 
 N -4.76690685937500 4.85265333437500 7.16057726562500 
 S -5.61308585937500 0.881776334374997 5.82268026562500 
 S -5.68566585937500 4.77771233437500 5.76105826562500 
 S -2.30602785937500 0.993344334374997 3.29621126562500 
 S -2.73429985937500 4.97392533437500 2.85211026562500 
 S -3.22782685937500 1.58573133437500 7.22171326562500 
 S -3.16226385937500 5.38510433437500 6.85514026562500 
