16

 C -3.74420630000000 1.24117980625000 5.63963916875000 
 C -3.03994830000000 5.06722580625000 5.39043816875000 
 C -4.82096830000000 0.567265806250003 4.95327416875000 
 C -4.18423530000000 4.41831380625000 4.82026516875000 
 N -2.69086330000000 1.42327980625000 4.86658216875000 
 N -2.02938630000000 5.12314480625000 4.54185316875000 
 N -4.60778530000000 0.326107806250003 3.67152716875000 
 N -4.10442430000000 4.07060680625000 3.54729616875000 
 N -5.35538230000000 0.552045806250003 7.38295416875000 
 N -4.69857430000000 4.87067180625000 7.32339016875000 
 S -6.15254330000000 0.194305806250003 5.92327316875000 
 S -5.49286130000000 4.35302180625000 5.94313816875000 
 S -3.14213630000000 1.01459480625000 3.34456516875000 
 S -2.61827230000000 4.57756980625000 3.06875416875000 
 S -3.81884430000000 1.16348780625000 7.30369316875000 
 S -3.12017030000000 5.41103780625000 7.10058916875000 
