16

 C -3.31545729687500 1.67848596875000 5.46133754375000 
 C -2.96369029687500 5.31302196875000 5.84703254375000 
 C -4.32996529687500 0.913777968750002 4.78833654375000 
 C -4.24613629687500 4.82667196875000 5.26553254375000 
 N -2.27468929687500 1.99768396875000 4.68992754375000 
 N -2.04060729687500 5.61542096875000 4.91658754375000 
 N -4.06330929687500 0.719041968750003 3.49841454375000 
 N -4.22957629687500 4.65794996875000 3.97674354375000 
 N -4.97510129687500 1.04055796875000 7.33193254375000 
 N -4.66628229687500 5.10368496875000 7.73888854375000 
 S -5.66005729687500 0.369012968750003 5.91762854375000 
 S -5.55386929687500 4.63225096875000 6.46501554375000 
 S -2.68078529687500 1.51685396875000 3.16915554375000 
 S -2.73664129687500 5.17020096875000 3.46804754375000 
 S -3.41333129687500 1.63498596875000 7.15204554375000 
 S -3.01322929687500 5.44110696875000 7.62774854375000 
