16

 C -2.61810322187500 1.59233428125000 5.35333823125000 
 C -3.36222622187500 5.00260228125000 5.61629823125000 
 C -3.73112522187500 0.834780281249999 4.80807423125000 
 C -4.52491322187500 4.52268728125000 4.88192123125000 
 N -1.76707622187500 2.11099428125000 4.48537823125000 
 N -2.41141222187500 5.43299528125000 4.77736023125000 
 N -3.70657722187500 0.754702281249999 3.49215523125000 
 N -4.37543622187500 4.34377328125000 3.58628123125000 
 N -4.28475922187500 1.07269128125000 7.33122023125000 
 N -5.16359222187500 4.45610128125000 7.41517123125000 
 S -5.05943022187500 0.511149281249999 5.97136223125000 
 S -5.81261322187500 4.01346528125000 5.94762723125000 
 S -2.40498522187500 1.64363028125000 2.99211623125000 
 S -2.94311122187500 5.14476528125000 3.22397323125000 
 S -2.93957222187500 2.01515128125000 7.03047923125000 
 S -3.64565022187500 5.19407628125000 7.34032423125000 
