16

 C -3.25902632812500 1.08389954687500 5.21802126250000 
 C -3.19984832812500 5.02045254687500 5.56995126250000 
 C -4.55839132812500 0.816141546874997 4.66352926250000 
 C -4.45132832812500 4.61775954687500 5.03790226250000 
 N -2.23826432812500 1.13375154687500 4.36320726250000 
 N -2.29868132812500 5.19978354687500 4.62434626250000 
 N -4.52712332812500 0.722097546874997 3.32806826250000 
 N -4.51905132812500 4.57334254687500 3.72740326250000 
 N -4.79986932812500 1.53440254687500 7.10475826250000 
 N -4.93471732812500 4.90118154687500 7.52876026250000 
 S -5.71906232812500 0.865346546874997 5.91968326250000 
 S -5.74038932812500 4.43871254687500 6.14587926250000 
 S -2.86835732812500 0.849122546874996 2.87259126250000 
 S -3.00752632812500 4.97456154687500 3.10288426250000 
 S -3.19566632812500 1.68138354687500 6.81425126250000 
 S -3.23385932812500 5.25331554687500 7.37615926250000 
