16

 C -3.33250809375000 1.26751874687500 5.32231190625000 
 C -3.20514409375000 5.34681174687500 5.59794590625000 
 C -4.57572809375000 0.734789746874998 4.73719190625000 
 C -4.41937509375000 5.22439674687500 4.79423690625000 
 N -2.37968809375000 1.42340374687500 4.42036190625000 
 N -2.11084909375000 5.65205574687500 4.88044290625000 
 N -4.47202009375000 0.452872746874998 3.43056690625000 
 N -4.17770209375000 5.11759574687500 3.45070090625000 
 N -5.01481009375000 1.03206174687500 7.23605790625000 
 N -5.18725109375000 5.07186574687500 7.30741990625000 
 S -5.81050609375000 0.445326746874998 5.92892890625000 
 S -5.80277009375000 5.04600574687500 5.75249590625000 
 S -2.91872709375000 0.933768746874998 2.94567790625000 
 S -2.52047509375000 5.40139874687500 3.29748690625000 
 S -3.44427909375000 1.58945074687500 7.00915890625000 
 S -3.49901609375000 5.24224274687500 7.37159790625000 
