16

 C -3.13474641875000 1.46750280937500 5.48945282812500 
 C -3.29238941875000 5.08414480937500 5.40520282812500 
 C -4.31220541875000 0.841175809375001 4.80985182812500 
 C -4.54087441875000 4.67370680937500 4.82714982812500 
 N -2.06390641875000 1.54547180937500 4.68922982812500 
 N -2.30413441875000 5.08402580937500 4.52245582812500 
 N -3.99861541875000 0.439456809375001 3.56233982812500 
 N -4.46160341875000 4.28229380937500 3.56678382812500 
 N -4.96686641875000 1.42789480937500 7.25254982812500 
 N -4.97171941875000 5.28373980937500 7.33422982812500 
 S -5.66788441875000 0.734323809375001 5.91491782812500 
 S -5.80121741875000 4.60996280937500 6.02608482812500 
 S -2.50052841875000 0.990203809375000 3.21752582812500 
 S -2.91028141875000 4.61797180937500 3.06574982812500 
 S -3.38718541875000 1.89018980937500 7.08329282812500 
 S -3.35172841875000 5.65065780937500 7.07364482812500 
