16

 C -2.91206944062500 1.63268095000000 5.43470970000000 
 C -3.14382744062500 5.17450195000000 5.53627370000000 
 C -4.17701844062500 1.50779195000000 4.78881670000000 
 C -4.33358944062500 4.68343495000000 4.86335170000000 
 N -1.90304244062500 1.57810095000000 4.59911770000000 
 N -2.09667444062500 5.35952595000000 4.74562170000000 
 N -4.07385244062500 1.33257995000000 3.46659770000000 
 N -4.11637744062500 4.34931195000000 3.58530270000000 
 N -4.66590844062500 1.67649395000000 7.32701570000000 
 N -4.97080444062500 5.03173395000000 7.33418670000000 
 S -5.50496844062500 1.39455195000000 5.93085770000000 
 S -5.71802644062500 4.67841495000000 5.89262970000000 
 S -2.42764444062500 1.25530995000000 3.05895470000000 
 S -2.57540544062500 4.78035595000000 3.20385470000000 
 S -3.02881344062500 1.94120395000000 7.13260170000000 
 S -3.36220644062500 5.27122695000000 7.22086470000000 
