16

 C -3.17128721562500 1.56332845312500 5.56696095312500 
 C -3.22576821562500 5.01677745312500 5.38337595312500 
 C -4.39322221562500 1.17450545312500 4.92434895312500 
 C -4.47196121562500 4.69337345312500 4.70854895312500 
 N -2.04611921562500 1.55372845312500 4.82417595312500 
 N -2.12329421562500 4.96721245312500 4.60865695312500 
 N -4.25689421562500 0.982824453125003 3.59530695312500 
 N -4.32987621562500 4.53269045312500 3.39846895312500 
 N -4.96891521562500 1.41596645312500 7.49030095312500 
 N -5.20152921562500 5.09512845312500 7.13338095312500 
 S -5.74728021562500 1.06295545312500 6.09341195312500 
 S -5.89533621562500 4.60839945312500 5.67195195312500 
 S -2.64859121562500 1.18100145312500 3.33751395312500 
 S -2.69318721562500 4.55962145312500 3.09394495312500 
 S -3.34422921562500 1.82243245312500 7.30449595312500 
 S -3.52838521562500 5.33165145312500 7.09461795312500 
