16

 C -2.90971457187500 1.65449010000000 5.40895646250000 
 C -3.22961657187500 5.04139810000000 5.62697346250000 
 C -4.21770057187500 1.29730010000000 4.87527446250000 
 C -4.46835957187500 4.76766010000000 4.95890846250000 
 N -1.92503457187500 1.68917910000000 4.49940846250000 
 N -2.18685757187500 5.26099610000000 4.82516046250000 
 N -4.19823757187500 1.11383510000000 3.55320746250000 
 N -4.35388457187500 4.68239110000000 3.63346746250000 
 N -4.59808657187500 1.73844610000000 7.38220246250000 
 N -4.92590557187500 4.66014410000000 7.44796546250000 
 S -5.43045657187500 1.18604810000000 6.08800546250000 
 S -5.76905957187500 4.44914110000000 6.05397246250000 
 S -2.64635357187500 1.32847310000000 3.00756246250000 
 S -2.76232657187500 4.99214510000000 3.23178946250000 
 S -3.01762657187500 1.98561610000000 7.09898846250000 
 S -3.37435057187500 5.23046410000000 7.36814646250000 
