16

 C -2.93077478125000 1.62477048437500 5.37436064687500 
 C -3.22197378125000 5.16563848437500 5.61092664687500 
 C -4.17685078125000 1.20572248437500 4.81219564687500 
 C -4.43186178125000 4.74601648437500 4.92068864687500 
 N -1.93680778125000 1.69924348437500 4.49276464687500 
 N -2.20634078125000 5.23449748437500 4.75614564687500 
 N -4.26966178125000 1.10677648437500 3.47452264687500 
 N -4.40221978125000 4.74350648437500 3.60045164687500 
 N -4.64160178125000 1.58641248437500 7.43736364687500 
 N -4.96480078125000 4.61660248437500 7.51307864687500 
 S -5.45449178125000 1.15604148437500 6.07547564687500 
 S -5.71532578125000 4.42514648437500 5.98562764687500 
 S -2.65122778125000 1.23598048437500 3.00311264687500 
 S -2.77813878125000 4.98379348437500 3.23811364687500 
 S -3.03824978125000 1.98031148437500 7.15406064687500 
 S -3.40154778125000 5.19232748437500 7.38826664687500 
