16

 C -3.25992783437500 1.02157452500000 5.65500388125000 
 C -3.00411683437500 5.09842152500000 5.45930588125000 
 C -4.41971683437500 0.541246525000002 4.94782288125000 
 C -4.11702183437500 4.44057752500000 4.80077988125000 
 N -2.15124583437500 1.17212052500000 4.95161488125000 
 N -1.90004083437500 5.30421052500000 4.72398488125000 
 N -4.15276483437500 0.390167525000002 3.68932688125000 
 N -3.89236283437500 4.29062252500000 3.49206388125000 
 N -5.17783683437500 0.772197525000002 7.38818388125000 
 N -4.74307783437500 4.77787452500000 7.31630188125000 
 S -5.82404483437500 0.341925525000002 5.94284188125000 
 S -5.50788783437500 4.31976952500000 5.87539188125000 
 S -2.62812283437500 0.957099525000002 3.35309188125000 
 S -2.36171183437500 4.84782552500000 3.15303288125000 
 S -3.54124983437500 0.972733525000002 7.32827988125000 
 S -3.07795783437500 5.16421352500000 7.16731388125000 
