16

 C -3.09572206875000 1.22536391250000 5.67548193750000 
 C -3.03102006875000 4.81276991250000 5.54822193750000 
 C -4.40323606875000 0.841496912499997 5.09833993750000 
 C -4.30990706875000 4.53493791250000 4.92712593750000 
 N -2.17541406875000 1.21832991250000 4.74364693750000 
 N -1.98471506875000 4.85326491250000 4.73222393750000 
 N -4.37953006875000 0.497664912499997 3.79875893750000 
 N -4.21151906875000 4.08139391250000 3.69999393750000 
 N -4.76838206875000 1.27433091250000 7.63046093750000 
 N -4.83103106875000 4.83917191250000 7.44719293750000 
 S -5.68416306875000 0.839303912499997 6.25302893750000 
 S -5.57239906875000 4.37433191250000 6.07205693750000 
 S -2.79027906875000 0.818171912499997 3.28460293750000 
 S -2.63340906875000 4.37468591250000 3.26772293750000 
 S -3.19797006875000 1.67173791250000 7.43984293750000 
 S -3.22865406875000 5.21280091250000 7.25734893750000 
