16

 C -3.02832108125000 1.43459752500000 5.47185508750000 
 C -2.97427008125000 5.17778752500000 5.47396308750000 
 C -4.14835708125000 0.838389525000005 4.78449708750000 
 C -4.26092908125000 4.86625452500000 4.86879308750000 
 N -1.95504408125000 1.62275852500000 4.66205608750000 
 N -1.93032208125000 5.27834652500000 4.62641308750000 
 N -3.91090108125000 0.554062525000004 3.52123308750000 
 N -4.14009308125000 4.66694852500000 3.54257108750000 
 N -4.98538608125000 1.06455952500000 7.09643308750000 
 N -4.67151808125000 5.08195852500000 7.44005908750000 
 S -5.61615108125000 0.571685525000004 5.68634108750000 
 S -5.61566208125000 5.01332152500000 6.05156608750000 
 S -2.46150508125000 1.12403652500000 3.10933708750000 
 S -2.57792408125000 4.93537152500000 3.11891808750000 
 S -3.35503608125000 1.33004952500000 7.22389408750000 
 S -2.96601208125000 5.39918252500000 7.15025808750000 
