16

 C -2.87686536250000 1.69127324687500 5.50128053125000 
 C -3.21896936250000 5.07203024687500 5.69114853125000 
 C -4.12565236250000 1.30224724687500 4.93534553125000 
 C -4.42458336250000 4.70642524687500 5.01433053125000 
 N -1.98170336250000 1.96475424687500 4.53797153125000 
 N -2.22784136250000 5.36064024687500 4.84162953125000 
 N -4.11719736250000 1.19889624687500 3.60410153125000 
 N -4.31540236250000 4.47833524687500 3.70152353125000 
 N -4.48778736250000 1.75117624687500 7.46551353125000 
 N -4.94763136250000 4.96874024687500 7.52655353125000 
 S -5.37926336250000 1.42996524687500 6.12360353125000 
 S -5.71203436250000 4.62592324687500 6.14412153125000 
 S -2.57891536250000 1.50487724687500 3.06374753125000 
 S -2.78212236250000 4.95145624687500 3.28576353125000 
 S -2.89835636250000 1.98425024687500 7.21382453125000 
 S -3.32102136250000 5.26472024687500 7.43095153125000 
