16

 C -3.06831534062500 1.69489199062500 5.46673347812500 
 C -3.55379634062500 5.18894799062500 5.49227947812500 
 C -4.15403934062500 1.10711899062500 4.75254747812500 
 C -4.68255734062500 4.48130499062500 4.96407847812500 
 N -2.00793534062500 2.04331799062500 4.71163947812500 
 N -2.57300634062500 5.54587599062500 4.63158747812500 
 N -3.93314434062500 0.854876990625000 3.44687347812500 
 N -4.54137334062500 4.25006099062500 3.67063247812500 
 N -4.70405934062500 0.873577990625000 7.28435947812500 
 N -5.19715834062500 4.62768099062500 7.46976847812500 
 S -5.47998234062500 0.617993990625000 5.82117147812500 
 S -5.94964134062500 4.04787699062500 6.09621147812500 
 S -2.43019734062500 1.51699099062500 3.16697247812500 
 S -3.07771534062500 4.92208199062500 3.16720647812500 
 S -3.35122934062500 1.85680699062500 7.20314847812500 
 S -3.84120734062500 5.50262499062500 7.22604147812500 
