16

 C -2.98516581875000 1.28852052187500 5.60585045625000 
 C -3.02601781875000 5.12633952187500 5.64672345625000 
 C -4.18059781875000 0.694371521874998 4.98362245625000 
 C -4.14610481875000 4.40966952187500 5.06100045625000 
 N -1.94404881875000 1.35910352187500 4.76853445625000 
 N -2.08340381875000 5.36956752187500 4.75152545625000 
 N -3.93167481875000 0.392903521874998 3.70564845625000 
 N -3.97566681875000 4.05515052187500 3.80055345625000 
 N -4.91007281875000 1.34065252187500 7.34868645625000 
 N -4.77391781875000 4.81984452187500 7.46235945625000 
 S -5.58848381875000 0.660114521874998 5.99099845625000 
 S -5.54547981875000 4.40885952187500 6.05040345625000 
 S -2.35047781875000 0.743292521874998 3.28422745625000 
 S -2.54434281875000 4.63257652187500 3.32231345625000 
 S -3.24650381875000 1.60819852187500 7.26663445625000 
 S -3.18153081875000 5.36210052187500 7.35512445625000 
