16

 C -2.94458765312500 1.39238957187500 5.53536151875000 
 C -3.10744865312500 5.22880857187500 5.13101651875000 
 C -4.13932565312500 0.986019571875000 4.86719951875000 
 C -4.34879565312500 4.73448957187500 4.61763051875000 
 N -1.76838565312500 1.37017557187500 4.81877951875000 
 N -2.07501365312500 5.29560357187500 4.31458951875000 
 N -3.93167765312500 0.695163571875000 3.59722051875000 
 N -4.31182865312500 4.52017357187500 3.31083751875000 
 N -4.92022565312500 1.50565257187500 7.21536551875000 
 N -4.71463165312500 4.88281357187500 7.10273251875000 
 S -5.61211965312500 0.860567571874999 5.83995251875000 
 S -5.65479665312500 4.81137357187500 5.74124251875000 
 S -2.29033565312500 0.962330571874999 3.27153451875000 
 S -2.72220065312500 4.90512257187500 2.85331851875000 
 S -3.25069765312500 1.59772657187500 7.24310351875000 
 S -3.14799365312500 5.36198157187500 6.85676551875000 
