16

 C -3.11475161250000 1.35359410000000 5.43758239687500 
 C -2.89401261250000 5.18983710000000 5.87288939687500 
 C -4.26899461250000 0.861313099999998 4.79693039687500 
 C -4.05219661250000 4.68128810000000 5.14683139687500 
 N -2.08455061250000 1.75251610000000 4.66478439687500 
 N -1.83826061250000 5.40923110000000 5.10888839687500 
 N -4.25559661250000 0.922813099999998 3.44529339687500 
 N -3.91791861250000 4.65192510000000 3.82911039687500 
 N -4.89549161250000 0.760636099999998 7.36717439687500 
 N -4.75306261250000 4.95157310000000 7.60738639687500 
 S -5.64629761250000 0.612970099999998 5.88379739687500 
 S -5.42146561250000 4.51331010000000 6.15666439687500 
 S -2.71826561250000 1.47346910000000 3.06840939687500 
 S -2.31167061250000 5.03935310000000 3.50103139687500 
 S -3.32073661250000 1.23384710000000 7.24381539687500 
 S -3.15039961250000 5.43005510000000 7.64114439687500 
