16

 C -3.33102054687500 1.49374232500000 5.46366113750000 
 C -3.05780554687500 5.19336432500000 5.88678513750000 
 C -4.54818054687500 1.16842632500000 4.76739613750000 
 C -4.37558554687500 4.94775232500000 5.27447413750000 
 N -2.25120554687500 1.64381632500000 4.68247713750000 
 N -2.09456154687500 5.23404032500000 4.96312113750000 
 N -4.41622654687500 1.09459832500000 3.44193013750000 
 N -4.41731654687500 4.82109832500000 3.97240613750000 
 N -5.03890654687500 1.07532332500000 7.37372513750000 
 N -4.77793354687500 5.08966632500000 7.86602713750000 
 S -5.84938254687500 0.721290324999997 5.91336013750000 
 S -5.63200854687500 5.02420232500000 6.43685413750000 
 S -2.82435154687500 1.53808532500000 3.13691613750000 
 S -2.79718754687500 5.05629732500000 3.51761513750000 
 S -3.47552454687500 1.60572932500000 7.20948113750000 
 S -3.16173254687500 5.37472832500000 7.61071013750000 
