16

 C -3.29327743437500 1.07587770000000 5.53306511562500 
 C -3.19391343437500 5.36233370000000 5.78457311562500 
 C -4.49357143437500 0.666400700000001 4.84712711562500 
 C -4.32294943437500 4.86290570000000 5.04497011562500 
 N -2.29554843437500 1.48271970000000 4.71362211562500 
 N -2.29164743437500 5.91323570000000 4.94815611562500 
 N -4.43861443437500 0.609544700000002 3.51638111562500 
 N -4.20196443437500 4.74953370000000 3.70136911562500 
 N -5.01082543437500 0.743205700000002 7.33596811562500 
 N -4.81795043437500 4.62351570000000 7.62313711562500 
 S -5.78284043437500 0.489515700000002 5.91448211562500 
 S -5.57954643437500 4.38266570000000 6.11409711562500 
 S -2.92890143437500 1.15814570000000 3.19143811562500 
 S -2.67581743437500 5.52808670000000 3.40898011562500 
 S -3.40234043437500 1.24285470000000 7.26970711562500 
 S -3.30214643437500 5.33001370000000 7.52252611562500 
