16

 C -3.12268282187500 1.35436133437500 5.27738125000000 
 C -3.02465882187500 4.93832133437500 5.54522025000000 
 C -4.24400982187500 0.657384334374999 4.67627225000000 
 C -4.32101882187500 4.65358533437500 5.04084125000000 
 N -2.22882382187500 1.72938433437500 4.37933825000000 
 N -2.00899982187500 5.01814733437500 4.66364925000000 
 N -4.07277282187500 0.412472334374999 3.38369625000000 
 N -4.29591682187500 4.54767133437500 3.71221325000000 
 N -4.91361882187500 0.980363334374999 7.17419925000000 
 N -4.62694182187500 4.86233433437500 7.62286325000000 
 S -5.54803982187500 0.285419334374999 5.79052325000000 
 S -5.54725482187500 4.40205833437500 6.29120425000000 
 S -2.60968382187500 1.07170933437500 2.92849825000000 
 S -2.75065682187500 4.77236433437500 3.21614225000000 
 S -3.39541582187500 1.58829733437500 7.03360725000000 
 S -2.99859282187500 5.04934833437500 7.25502725000000 
