16

 C -3.19749425937500 1.31214919687500 5.85643880312500 
 C -2.95639325937500 4.86396319687499 5.67911380312500 
 C -4.48287225937500 0.868539196874995 5.34550180312500 
 C -4.19708725937500 4.45501019687500 5.00536080312500 
 N -2.26477325937500 1.55398419687500 4.92175780312500 
 N -1.98412625937500 5.25339319687500 4.87857380312500 
 N -4.47245225937500 0.653614196874996 3.99369980312500 
 N -4.07333425937500 4.43008519687499 3.67970980312500 
 N -4.86991825937500 1.36583019687500 7.82108880312500 
 N -4.77361225937500 4.81913019687500 7.50259480312500 
 S -5.76240325937500 1.13043919687500 6.46172080312500 
 S -5.64773025937500 4.43608619687500 6.04906180312500 
 S -2.91185525937500 1.02731719687499 3.48560580312500 
 S -2.53851025937500 5.00827519687500 3.32451880312500 
 S -3.24230925937500 1.76245219687500 7.60733280312500 
 S -3.20768325937500 5.13558419687500 7.39312380312500 
