16

 C -3.03060960000000 1.29824699062500 5.63332943750000 
 C -3.09087060000000 5.15555299062500 5.44126643750000 
 C -4.18327160000000 0.822652990624998 4.94491443750000 
 C -4.18062160000000 4.35605599062500 4.87168843750000 
 N -1.92123260000000 1.39620499062500 4.91258743750000 
 N -2.17261660000000 5.36260499062500 4.55102443750000 
 N -3.96325660000000 0.527398990624998 3.68884843750000 
 N -3.93208360000000 3.80896499062500 3.69099943750000 
 N -4.79039860000000 0.948354990624997 7.50355443750000 
 N -4.86490660000000 5.17933499062500 7.27771243750000 
 S -5.56153160000000 0.580214990624998 6.09491743750000 
 S -5.44110860000000 4.12812199062500 6.10250743750000 
 S -2.42808260000000 1.00308999062500 3.32781343750000 
 S -2.50146960000000 4.48328999062500 3.19110443750000 
 S -3.28348360000000 1.58219699062500 7.31984743750000 
 S -3.35854160000000 5.89436899062500 6.96532743750000 
