16

 C -3.27408433437500 1.58894843125000 5.47410898125000 
 C -3.19668833437500 5.17076443125000 5.69092598125000 
 C -4.59711133437500 1.27032443125000 4.96932998125000 
 C -4.46098833437500 4.78068443125000 5.06410498125000 
 N -2.29231933437500 1.72628343125000 4.58720898125000 
 N -2.19024133437500 5.53949743125000 4.86316398125000 
 N -4.57249533437500 1.06454343125000 3.68020398125000 
 N -4.32622833437500 4.66960743125000 3.75003698125000 
 N -4.82988833437500 1.07074943125000 7.56986698125000 
 N -4.96972733437500 4.95659243125000 7.56419298125000 
 S -5.82379933437500 0.950404431250003 6.23271498125000 
 S -5.67317233437500 4.30747643125000 6.23490198125000 
 S -3.01016633437500 1.48022243125000 3.13510198125000 
 S -2.75418733437500 5.16000143125000 3.33394298125000 
 S -3.28081033437500 1.63362443125000 7.20395698125000 
 S -3.41329733437500 5.39962543125000 7.42001598125000 
