16

 C -3.35206466250000 1.46249671250000 5.72019762500000 
 C -3.30358766250000 5.16335271250000 5.41031362500000 
 C -4.41632066250000 0.912762712500000 4.97124162500000 
 C -4.53882766250000 4.75167971250000 4.78589562500000 
 N -2.18209466250000 1.56496471250000 5.04839862500000 
 N -2.32751966250000 5.33569071250000 4.53645362500000 
 N -4.14456066250000 0.664716712500000 3.68943162500000 
 N -4.46623466250000 4.59299871250000 3.46778762500000 
 N -5.34287166250000 1.04602071250000 7.39306862500000 
 N -5.07482166250000 4.91557971250000 7.31098862500000 
 S -5.91575866250000 0.574912712500000 5.89877962500000 
 S -5.77414366250000 4.41555771250000 5.86388762500000 
 S -2.61693966250000 1.17818671250000 3.47092962500000 
 S -2.96994166250000 5.03599771250000 3.02357162500000 
 S -3.77404366250000 1.57028971250000 7.49484862500000 
 S -3.42070466250000 5.30218071250000 7.18733062500000 
