16

 C -2.88030911562500 1.58741202812500 5.76003041875000 
 C -3.28956211562500 5.34365802812500 5.48141441875000 
 C -4.16260811562500 1.46971402812500 5.11145841875000 
 C -4.54803411562500 4.88678402812500 4.91059941875000 
 N -1.81116811562500 1.74049802812500 4.95391641875000 
 N -2.33446311562500 5.60741202812500 4.57394741875000 
 N -4.06880911562500 1.33365902812500 3.78681141875000 
 N -4.57771011562500 4.83837802812500 3.56156641875000 
 N -4.61233811562500 1.51673102812500 7.69657041875000 
 N -5.06114211562500 5.06615902812500 7.39537641875000 
 S -5.48914211562500 1.43279102812500 6.28344641875000 
 S -5.82549311562500 4.60697602812500 5.99873141875000 
 S -2.50360611562500 1.61202502812500 3.40327341875000 
 S -3.05255011562500 5.27986302812500 3.10500441875000 
 S -2.92755111562500 1.59370902812500 7.56783441875000 
 S -3.45733911562500 5.61824802812500 7.22385041875000 
