16

 C -3.15176842500000 1.46815860937500 5.29424384062500 
 C -3.10510942500000 5.25685060937500 5.54238984062500 
 C -4.34405042500000 0.977146609375001 4.59713684062500 
 C -4.39046542500000 4.76013860937500 4.97904184062500 
 N -2.15866842500000 1.79615860937500 4.45536784062500 
 N -2.09535442500000 5.30409560937500 4.71244984062500 
 N -4.34617342500000 0.984244609375001 3.25511184062500 
 N -4.34344542500000 4.59556160937500 3.66146784062500 
 N -4.73895542500000 0.520532609375001 7.21480384062500 
 N -4.63575442500000 5.02040660937500 7.53362784062500 
 S -5.53094842500000 0.300898609375001 5.73728384062500 
 S -5.57205742500000 4.44807260937500 6.23903084062500 
 S -2.82941042500000 1.58335260937500 2.88722684062500 
 S -2.72288642500000 4.92675960937500 3.23318084062500 
 S -3.26506542500000 1.33401360937500 7.06940284062500 
 S -3.09933442500000 5.59431060937500 7.22864484062500 
