16

 C -3.09706669687500 1.04316638125000 5.75122497500000 
 C -2.80982869687500 4.68238838125000 5.45025297500000 
 C -4.47082469687500 0.905653381249998 5.22957697500000 
 C -4.08223569687500 4.40585938125000 4.82423497500000 
 N -2.12124969687500 1.00278838125000 4.80909997500000 
 N -1.79237369687500 4.86848238125000 4.56790897500000 
 N -4.48662369687500 0.625315381249999 3.91513497500000 
 N -4.07972369687500 4.34529438125000 3.47927197500000 
 N -4.48834369687500 1.74531138125000 7.73756097500000 
 N -4.73275869687500 4.77009538125000 7.30298797500000 
 S -5.55347569687500 1.43427138125000 6.53801497500000 
 S -5.48445769687500 4.61783538125000 5.81679897500000 
 S -2.83405669687500 0.549393381249999 3.39806297500000 
 S -2.49728369687500 4.68782038125000 3.06163697500000 
 S -2.87357969687500 1.68521438125000 7.36263397500000 
 S -2.97100769687500 4.80624438125000 7.21795297500000 
