16

 C -3.16642720625000 1.34304327812500 5.56843753437500 
 C -3.05688820625000 5.09740427812500 5.59873953437500 
 C -4.37647920625000 0.841383278125001 4.97660153437500 
 C -4.24342820625000 4.51080627812500 4.99304753437500 
 N -2.14343020625000 1.42094927812500 4.70067153437500 
 N -2.07984920625000 5.34916327812500 4.72328453437500 
 N -4.23743320625000 0.577003278125001 3.68672153437500 
 N -4.22733220625000 4.51865927812500 3.67741953437500 
 N -4.89934920625000 1.16577527812500 7.44116553437500 
 N -4.91152420625000 4.69393627812500 7.48217253437500 
 S -5.70545920625000 0.647044278125001 6.03066553437500 
 S -5.68873620625000 4.38690127812500 5.97720153437500 
 S -2.77240020625000 1.08433427812500 3.21522253437500 
 S -2.76730320625000 5.08962027812500 3.21229953437500 
 S -3.28798520625000 1.52148627812500 7.24757353437500 
 S -3.24018320625000 5.15369427812500 7.34264553437500 
