16

 C -3.12285370937500 1.44174966562500 5.29115775937500 
 C -3.27481770937500 5.22619066562500 5.35432075937500 
 C -4.39080570937500 0.986872665625001 4.79609975937500 
 C -4.49587570937500 4.59597466562500 4.86109275937500 
 N -2.12625470937500 1.44884166562500 4.45612175937500 
 N -2.50852770937500 5.47658666562500 4.32562475937500 
 N -4.29263770937500 0.709625665625000 3.51092975937500 
 N -4.53866470937500 4.34061266562500 3.54527475937500 
 N -4.57525970937500 1.29429666562500 7.37012475937500 
 N -4.88888970937500 4.70548666562500 7.41850975937500 
 S -5.60403970937500 0.909263665625001 6.13413375937500 
 S -5.65009470937500 4.21148866562500 6.03376175937500 
 S -2.72340670937500 0.953716665625001 3.03937475937500 
 S -3.10785070937500 4.92312166562500 2.90961875937500 
 S -2.97043570937500 1.54985866562500 6.97274275937500 
 S -3.27211370937500 5.29617566562500 7.12516075937500 
