16

 C -3.25245821875000 1.45469773437500 5.61556901250000 
 C -3.37269521875000 5.26787673437500 5.67139101250000 
 C -4.51160221875000 1.10098473437500 4.99647201250000 
 C -4.55310821875000 4.74143573437500 5.05977001250000 
 N -2.36113621875000 1.80818173437500 4.64774701250000 
 N -2.41122421875000 5.73082673437500 4.84064801250000 
 N -4.58244421875000 1.08410573437500 3.66225701250000 
 N -4.41616621875000 4.50712573437500 3.75394901250000 
 N -4.91669221875000 1.09295673437500 7.55460301250000 
 N -5.07399921875000 4.76896673437500 7.48390201250000 
 S -5.78762621875000 0.869295734374998 6.14151201250000 
 S -5.81071721875000 4.29832873437500 6.08474001250000 
 S -3.00628321875000 1.47691173437500 3.17814701250000 
 S -2.95812121875000 5.17714273437500 3.34233901250000 
 S -3.28458721875000 1.57096373437500 7.38864301250000 
 S -3.55162521875000 5.40068573437500 7.39891201250000 
