16

 C -3.00554345625000 1.41511833125000 5.52553385000000 
 C -3.36689845625000 5.14037533125000 5.16728485000000 
 C -4.15983445625000 1.03154833125000 4.81332985000000 
 C -4.43472345625000 4.35798033125000 4.57927585000000 
 N -1.90979445625000 1.54422433125000 4.78035685000000 
 N -2.26677445625000 5.27996133125000 4.45640485000000 
 N -4.03546045625000 0.813950331249999 3.50024785000000 
 N -4.19146345625000 4.00165133125000 3.33622585000000 
 N -4.98376445625000 1.07546633125000 7.34385385000000 
 N -5.18743545625000 5.05964633125000 6.91065585000000 
 S -5.60627745625000 0.778688331250000 5.79281585000000 
 S -5.73380945625000 4.10155533125000 5.67184485000000 
 S -2.39073145625000 1.13689133125000 3.21092585000000 
 S -2.53960745625000 4.47115133125000 3.05119485000000 
 S -3.44287645625000 1.70699033125000 7.25523585000000 
 S -3.77514145625000 5.85416633125000 6.65889285000000 
