16

 C -3.16053160000000 1.38414677187500 5.58222870000000 
 C -3.57163360000000 4.82246877187500 5.09394670000000 
 C -4.36671660000000 0.819973771874999 5.02921670000000 
 C -4.72298760000000 4.21644077187500 4.44993370000000 
 N -2.19968260000000 1.54043477187500 4.69928870000000 
 N -2.61894160000000 5.13209477187500 4.22502770000000 
 N -4.30153560000000 0.579168771874999 3.72063570000000 
 N -4.58396460000000 3.95061177187500 3.14008370000000 
 N -4.77797460000000 1.03281677187500 7.53482170000000 
 N -5.32312860000000 4.46693077187500 6.91805670000000 
 S -5.56804860000000 0.433118771874999 6.18042770000000 
 S -5.96242460000000 3.82478277187500 5.54954370000000 
 S -2.76978360000000 1.05223577187500 3.17140570000000 
 S -3.12957360000000 4.59768477187500 2.69109570000000 
 S -3.27525260000000 1.78338477187500 7.30630970000000 
 S -3.89224660000000 5.28782177187500 6.73300670000000 
