16

 C -3.24782919375000 1.55328851875000 5.62532436250000 
 C -2.98379719375000 5.29096951875000 5.89532836250000 
 C -4.28994819375000 0.834328518749997 4.93060136250000 
 C -4.18543019375000 4.71484451875000 5.36430036250000 
 N -2.36066019375000 2.08875351875000 4.82233836250000 
 N -2.07581719375000 5.64661151875000 4.98215636250000 
 N -4.07636619375000 0.764620518749997 3.59172936250000 
 N -4.15476919375000 4.47675951875000 4.01661636250000 
 N -5.04452319375000 1.11450951875000 7.46424436250000 
 N -4.74808519375000 5.00014151875000 7.80520536250000 
 S -5.66271519375000 0.584592518749997 5.97343836250000 
 S -5.48180019375000 4.57119951875000 6.48438936250000 
 S -2.63132219375000 1.52032551875000 3.30325836250000 
 S -2.73181319375000 5.10827851875000 3.51659036250000 
 S -3.50167119375000 1.78674751875000 7.33210936250000 
 S -3.18860619375000 5.49755251875000 7.65222736250000 
