16

 C -3.22520335937500 1.21785072500000 5.28613975937499 
 C -2.87946835937500 5.06485672500000 5.43716975937499 
 C -4.45616035937500 0.829391725000001 4.65230575937499 
 C -4.07597335937500 4.53074172500000 4.78970275937499 
 N -2.18671835937500 1.20999372500000 4.46441475937499 
 N -1.92941335937500 5.36950672500000 4.57238375937499 
 N -4.41765635937500 0.535637725000001 3.34955175937499 
 N -3.97220035937500 4.24381972500000 3.47469075937499 
 N -5.08278235937500 1.64062872500000 6.97721175937499 
 N -4.81283335937500 5.10434672500000 7.18284175937499 
 S -5.84699835937500 0.965327725000001 5.66711775937499 
 S -5.42010035937500 4.36340972500000 5.85033475937499 
 S -2.84490835937500 0.821546725000001 2.96829675937499 
 S -2.44954235937500 4.82807272500000 3.08659775937499 
 S -3.38103435937500 1.62937772500000 6.99286975937499 
 S -3.20277135937500 5.58749972500000 7.06924375937499 
