16

 C -2.91670040625000 1.61759482812500 5.78129059062500 
 C -3.15456840625000 5.26233982812500 5.69054059062500 
 C -4.19507340625000 1.37754582812500 5.12705959062500 
 C -4.40850540625000 4.92173682812500 5.05972859062500 
 N -1.96863040625000 1.92851382812500 4.93094459062500 
 N -2.19396940625000 5.46003582812500 4.80307559062500 
 N -4.17575240625000 1.52604282812500 3.82883559062500 
 N -4.36652940625000 4.75472282812500 3.73511259062500 
 N -4.67087140625000 1.60061182812500 7.61567359062500 
 N -4.80361340625000 5.24403082812500 7.63245059062500 
 S -5.51664740625000 1.49314382812500 6.23472259062500 
 S -5.67289440625000 4.83389682812500 6.25911559062500 
 S -2.57036540625000 1.83268182812500 3.40203559062500 
 S -2.78485240625000 5.07207182812500 3.30685659062500 
 S -3.05093840625000 1.77703582812500 7.46909759062500 
 S -3.15359840625000 5.52820182812500 7.43546759062500 
