16

 C -2.99120070000000 1.36376806250000 5.51132331875000 
 C -3.16979070000000 5.07155106250000 5.53351331875000 
 C -4.26164770000000 1.26658206250000 4.86416931875000 
 C -4.37110870000000 4.62558906250000 4.91791331875000 
 N -1.96717970000000 1.30444706250000 4.67671331875000 
 N -2.15934670000000 5.16661306250000 4.73041131875000 
 N -4.18315870000000 1.01838906250000 3.57690531875000 
 N -4.25550270000000 4.29015706250000 3.64180431875000 
 N -4.81954970000000 1.53089706250000 7.32768731875000 
 N -5.02135170000000 5.18479306250000 7.32522431875000 
 S -5.61360070000000 1.50982806250000 5.86287831875000 
 S -5.75501070000000 4.59872906250000 5.93213331875000 
 S -2.56397470000000 1.10520006250000 3.15978931875000 
 S -2.71980270000000 4.67088606250000 3.20493031875000 
 S -3.13495670000000 1.61095106250000 7.19878731875000 
 S -3.39831070000000 5.42793806250000 7.22832131875000 
