16

 C -3.24322892500000 1.22584359375000 5.50339756875000 
 C -3.18416492500000 5.46989959375000 5.54491556875000 
 C -4.42862292500000 0.797988593750000 4.85066356875000 
 C -4.24157492500000 4.84331859375000 4.79229456875000 
 N -2.20510992500000 1.36941459375000 4.72289656875000 
 N -2.14782092500000 5.74561459375000 4.77392256875000 
 N -4.32887592500000 0.786319593750000 3.52226656875000 
 N -4.15999992500000 4.97602959375000 3.47296056875000 
 N -4.88871492500000 1.03599859375000 7.34935256875000 
 N -4.88274092500000 4.82357859375000 7.39661956875000 
 S -5.67478492500000 0.523636593750000 5.97363556875000 
 S -5.50524792500000 4.36595759375000 5.94117956875000 
 S -2.69907692500000 1.01121759375000 3.20553656875000 
 S -2.65280792500000 5.52528059375000 3.17836056875000 
 S -3.28136092500000 1.29113059375000 7.23733956875000 
 S -3.33924192500000 5.54905659375000 7.29550856875000 
