16

 C -3.17060783750000 1.52745480625000 5.66355628750000 
 C -3.27472583750000 4.92246880625000 5.42880928750000 
 C -4.43117483750000 1.27781280625000 5.02520628750000 
 C -4.51917583750000 4.79604380625000 4.71578728750000 
 N -2.17810683750000 1.57796080625000 4.78939128750000 
 N -2.17706683750000 4.86771780625000 4.69420128750000 
 N -4.37749183750000 1.12025980625000 3.70052728750000 
 N -4.36399783750000 4.66383980625000 3.40895528750000 
 N -4.87030883750000 1.55101080625000 7.56645628750000 
 N -5.07373483750000 4.98441680625000 7.17500828750000 
 S -5.72143183750000 1.11760480625000 6.17775928750000 
 S -5.86763883750000 4.58450680625000 5.79926328750000 
 S -2.69639483750000 1.24224380625000 3.22766228750000 
 S -2.69729483750000 4.70183280625000 3.12161528750000 
 S -3.27241383750000 1.84580680625000 7.34382328750000 
 S -3.44548383750000 5.23681380625000 7.09227828750000 
