16

 C -2.69090949687500 1.61851379062500 5.35006328437500 
 C -3.36789549687500 5.03070379062500 5.61389628437500 
 C -3.73644649687500 0.839356790625001 4.79346728437500 
 C -4.50087149687500 4.49889779062500 4.91619128437500 
 N -1.75492949687500 2.12816679062500 4.50518528437500 
 N -2.42949049687500 5.46267779062500 4.78246128437500 
 N -3.70679149687500 0.766655790625001 3.44018128437500 
 N -4.36935949687500 4.35102879062500 3.59101728437500 
 N -4.32404049687500 1.10332779062500 7.34133428437500 
 N -5.18563849687500 4.51570379062500 7.43867028437500 
 S -5.07262249687500 0.490423790625001 5.98030628437500 
 S -5.83881049687500 3.99183979062500 5.96102128437500 
 S -2.37967349687500 1.64924879062500 3.00437528437500 
 S -2.95019049687500 5.13748179062500 3.18827628437500 
 S -2.96839749687500 2.00697079062500 7.04623428437500 
 S -3.68101149687500 5.21151179062500 7.32818428437500 
