16

 C -3.14578465625000 1.07013416562500 5.71512512187500 
 C -2.75946665625000 4.66762416562500 5.42618512187500 
 C -4.47151665625000 0.870754165625000 5.25619012187500 
 C -4.07467065625000 4.40623816562500 4.81299112187500 
 N -2.16981865625000 0.972203165625000 4.83846012187500 
 N -1.75916865625000 4.82931116562500 4.57187012187500 
 N -4.44382365625000 0.610682165625001 3.91064912187500 
 N -4.05520865625000 4.40964816562500 3.49923712187500 
 N -4.50510565625000 1.75035616562500 7.81845312187500 
 N -4.65114765625000 4.69143316562500 7.30444512187500 
 S -5.61620965625000 1.41089516562500 6.55184112187500 
 S -5.47997665625000 4.61257016562500 5.83268712187500 
 S -2.87527765625000 0.581840165625000 3.44260512187500 
 S -2.54813665625000 4.73130116562500 3.03872712187500 
 S -2.87434065625000 1.72232416562500 7.30596212187500 
 S -3.02491465625000 4.83285916562500 7.26235712187500 
