16

 C -3.27627658750000 1.30680773125000 5.53455924375000 
 C -3.36968758750000 5.02190273125000 5.25525924375000 
 C -4.50733658750000 0.764538731249999 4.89707824375000 
 C -4.56044958750000 4.50571573125000 4.59784024375000 
 N -2.33292858750000 1.60036173125000 4.63976424375000 
 N -2.37360258750000 5.22447273125000 4.38907724375000 
 N -4.37904458750000 0.586708731249999 3.58611024375000 
 N -4.50320558750000 4.40747773125000 3.26577824375000 
 N -5.02437458750000 0.898596731249998 7.47627024375000 
 N -5.17725558750000 4.55950673125000 7.12115224375000 
 S -5.80358258750000 0.492895731249999 6.05871124375000 
 S -5.95654158750000 4.31408673125000 5.67024124375000 
 S -2.87062358750000 1.08014073125000 3.14312624375000 
 S -2.95879858750000 4.91372373125000 2.87413624375000 
 S -3.52677958750000 1.58794773125000 7.33278224375000 
 S -3.54868758750000 5.07140573125000 6.96775024375000 
