16

 C -3.04515330937500 1.30550627187500 5.57820266875000 
 C -3.12197830937500 5.19557827187500 5.18447166875000 
 C -4.17372730937500 0.953643271875004 4.79808066875000 
 C -4.34804030937500 4.78221627187500 4.61616666875000 
 N -1.91867030937500 1.32620927187500 4.84994366875000 
 N -2.14304230937500 5.50754827187500 4.34145866875000 
 N -3.94706830937500 0.658267271875004 3.51677666875000 
 N -4.21914930937500 4.56498027187500 3.29309366875000 
 N -4.86054330937500 1.30612027187500 7.25838466875000 
 N -4.79567030937500 4.86326027187500 7.16753866875000 
 S -5.58900230937500 0.892490271875004 5.80888166875000 
 S -5.67172930937500 4.74023827187500 5.78171766875000 
 S -2.35357830937500 0.983460271875003 3.28040466875000 
 S -2.71609430937500 5.02781627187500 2.84746666875000 
 S -3.23228830937500 1.58448127187500 7.22554566875000 
 S -3.18255830937500 5.40981827187500 6.92211666875000 
