16

 C -3.11433248437500 1.47263013750000 5.60909572812500 
 C -3.33931348437500 5.03833013750000 5.26219772812500 
 C -4.27233548437500 0.987239137500000 4.85625772812500 
 C -4.44335248437500 4.36580613750000 4.64906772812500 
 N -2.04337448437500 1.64013213750000 4.88271572812500 
 N -2.25162748437500 5.26195713750000 4.52188172812500 
 N -3.98245648437500 0.806525137500000 3.59382472812500 
 N -4.12071548437500 3.95189513750000 3.43845072812500 
 N -5.05971848437500 1.22661213750000 7.27389272812500 
 N -5.29575048437500 5.35760113750000 6.87494072812500 
 S -5.71061048437500 0.989119137499999 5.79630972812500 
 S -5.92404348437500 4.45221813750000 5.57152372812500 
 S -2.35207548437500 1.18794213750000 3.28009872812500 
 S -2.56685448437500 4.43427213750000 3.11964372812500 
 S -3.51049448437500 1.65299513750000 7.26807472812500 
 S -3.62785248437500 5.59400613750000 6.86316872812500 
