16

 C -3.15629015625000 1.27078584375000 5.37587478125000 
 C -3.11327615625000 4.90925684375000 5.49319578125000 
 C -4.28251515625000 0.573558843749999 4.80990378125000 
 C -4.43253715625000 4.66179784375000 4.95731878125000 
 N -2.21726615625000 1.65222084375000 4.49958678125000 
 N -2.16566715625000 5.02109784375000 4.58035478125000 
 N -4.20078315625000 0.277778843749999 3.49205378125000 
 N -4.48409615625000 4.48420184375000 3.63802878125000 
 N -4.89105115625000 1.20003184375000 7.32338978125000 
 N -4.80021315625000 4.81288584375000 7.51397778125000 
 S -5.56346315625000 0.335900843749999 6.10249978125000 
 S -5.71363715625000 4.61296984375000 6.12183778125000 
 S -2.69985215625000 0.898202843749999 3.02140978125000 
 S -2.92029315625000 4.71328984375000 3.07737478125000 
 S -3.38584215625000 1.86839584375000 7.00268678125000 
 S -3.18783115625000 5.31178984375000 7.19096378125000 
