16

 C -2.97484212812500 1.58432325625000 5.40677861875000 
 C -3.21296612812500 5.18018825625000 5.58375461875000 
 C -4.28317412812500 1.21703825625000 4.85605561875000 
 C -4.42749912812500 4.81990225625000 4.95044261875000 
 N -2.03173612812500 1.65809225625000 4.47420361875000 
 N -2.17100512812500 5.26558725625000 4.73641461875000 
 N -4.21508212812500 1.00391925625000 3.53136661875000 
 N -4.36908712812500 4.74693825625000 3.60569661875000 
 N -4.61323612812500 1.43901025625000 7.42504761875000 
 N -5.00081212812500 4.63674425625000 7.45517661875000 
 S -5.51046012812500 1.10971425625000 6.01767861875000 
 S -5.72074212812500 4.38020325625000 5.98908161875000 
 S -2.64882112812500 1.19362625625000 3.01807761875000 
 S -2.79131112812500 4.98789225625000 3.23210361875000 
 S -3.02719412812500 1.94614925625000 7.16559161875000 
 S -3.41072312812500 5.14426625625000 7.35950561875000 
