16

 C -2.90842310625000 1.30493976875000 5.75237523750000 
 C -3.10409910625000 4.85415576875000 5.48177223750000 
 C -4.04797310625000 0.769694768750000 5.18795723750000 
 C -4.37832310625000 4.58507676875000 4.87626423750000 
 N -1.86419510625000 1.37259776875000 4.94242223750000 
 N -2.09995010625000 4.99367076875000 4.60608123750000 
 N -3.90748810625000 0.360293768750000 3.94230723750000 
 N -4.31850510625000 4.24068376875000 3.57594123750000 
 N -4.62042510625000 1.54541676875000 7.58325523750000 
 N -4.76764610625000 5.00642176875000 7.39798823750000 
 S -5.41743410625000 0.861004768750000 6.26055723750000 
 S -5.71702510625000 4.63212576875000 6.01651523750000 
 S -2.34093910625000 0.747485768749999 3.54499623750000 
 S -2.71446810625000 4.46443276875000 3.18991323750000 
 S -2.95336110625000 1.93205376875000 7.35302023750000 
 S -3.15799410625000 5.27998776875000 7.14577823750000 
