16

 C -3.17228056562500 1.56636625625000 5.44379329375000 
 C -3.09361756562500 5.08511925625000 5.59444729375000 
 C -4.41657156562500 1.24976325625000 4.78878229375000 
 C -4.28649256562500 4.56093725625000 4.98627729375000 
 N -2.17031856562500 1.83881425625000 4.60448029375000 
 N -2.02636256562500 5.19672525625000 4.75632329375000 
 N -4.36449056562500 1.24388225625000 3.46906829375000 
 N -4.15562256562500 4.34300625625000 3.69304229375000 
 N -4.94470156562500 1.28416525625000 7.36557129375000 
 N -4.86527256562500 4.67172125625000 7.42988229375000 
 S -5.71777656562500 0.939971256250002 5.89536329375000 
 S -5.69622156562500 4.36579525625000 6.07157429375000 
 S -2.79455256562500 1.51010425625000 3.03691929375000 
 S -2.57949956562500 4.70290225625000 3.23938229375000 
 S -3.38953456562500 1.69477925625000 7.13007129375000 
 S -3.35260056562500 5.35007925625000 7.33847829375000 
