16

 C -3.23114942500000 1.56429409062500 5.34916810312500 
 C -3.03944042500000 5.07657409062500 5.43383410312500 
 C -4.37743742500000 1.09468809062500 4.66577410312500 
 C -4.29455342500000 4.91518009062500 4.74545310312500 
 N -2.23850342500000 1.74498609062500 4.50899910312500 
 N -1.99099042500000 5.12158009062500 4.58978210312500 
 N -4.28148742500000 0.911065090624999 3.34116310312500 
 N -4.26284242500000 5.02493809062500 3.38908910312500 
 N -5.03508342500000 1.18706909062500 7.15227910312500 
 N -4.82581342500000 4.94410709062500 7.24960310312500 
 S -5.74112642500000 0.822695090624999 5.68830410312500 
 S -5.64816842500000 4.78027609062500 5.81706110312500 
 S -2.74691742500000 1.50294109062500 2.99980710312500 
 S -2.63954442500000 5.10313809062500 3.05013710312500 
 S -3.34924142500000 1.60141409062500 7.11893510312500 
 S -3.20863842500000 4.82586909062500 7.19194610312500 
