16

 C -3.10436822812500 1.70415545625000 5.52847915937500 
 C -3.10324622812500 5.03691745625000 5.51612215937500 
 C -4.44437622812500 1.53261345625000 4.97321515937500 
 C -4.34803522812500 4.66706345625000 4.87720915937500 
 N -2.10399722812500 1.73741545625000 4.61734115937500 
 N -2.09873622812500 5.37135845625000 4.69624315937500 
 N -4.48918922812500 1.57498445625000 3.64512715937500 
 N -4.24187822812500 4.76331445625000 3.54299315937500 
 N -4.74704522812500 1.58441445625000 7.49792515937500 
 N -4.79991222812500 4.46999545625000 7.46933415937500 
 S -5.71512922812500 1.49803045625000 6.16285915937500 
 S -5.67738322812500 4.33805245625000 6.05972915937500 
 S -3.00089122812500 1.60482245625000 3.17524315937500 
 S -2.70440322812500 5.14057045625000 3.17841115937500 
 S -3.10937922812500 1.62755645625000 7.29898315937500 
 S -3.14641322812500 4.87966645625000 7.22705015937500 
