16

 C -3.42572375000000 1.55993340000000 5.47687866562500 
 C -3.15236475000000 5.71015940000000 5.62599966562500 
 C -4.49681375000000 0.932751399999998 4.84336066562500 
 C -4.15363775000000 4.95328640000000 4.96055466562500 
 N -2.31035975000000 1.61880040000000 4.71960366562500 
 N -2.18343575000000 6.08829040000000 4.79449066562500 
 N -4.27749875000000 0.479842399999998 3.61399766562500 
 N -3.99118375000000 4.78548640000000 3.62264766562500 
 N -5.11461875000000 1.19327840000000 7.28877966562500 
 N -4.86934275000000 5.08599340000000 7.44002866562500 
 S -5.84579875000000 0.781342399999999 5.84831866562500 
 S -5.46206075000000 4.56481440000000 6.01809466562500 
 S -2.69491175000000 1.00561740000000 3.22791966562500 
 S -2.58118275000000 5.48230240000000 3.27303966562500 
 S -3.51738675000000 1.52737540000000 7.20024566562500 
 S -3.32431175000000 5.75381140000000 7.38565866562500 
