16

 C -3.32485743750000 1.24895553750000 5.55764518437500 
 C -3.23535343750000 5.09817153750000 5.24733618437500 
 C -4.56271843750000 1.11786253750000 4.87348018437500 
 C -4.47940043750000 4.56353853750000 4.64863318437500 
 N -2.26613543750000 1.25402453750000 4.76703318437500 
 N -2.21408943750000 5.15273253750000 4.42741518437500 
 N -4.40381643750000 1.02055853750000 3.55595518437500 
 N -4.32192343750000 4.14675053750000 3.39108118437500 
 N -5.15211443750000 1.22721253750000 7.37272118437500 
 N -5.01285743750000 4.89438453750000 7.13106518437500 
 S -5.89767443750000 0.947100537499998 5.89738718437500 
 S -5.84559443750000 4.50046053750000 5.75185818437500 
 S -2.81572943750000 0.998962537499998 3.17117818437500 
 S -2.78701443750000 4.45629853750000 2.94165618437500 
 S -3.50394943750000 1.42077553750000 7.27409218437500 
 S -3.39373643750000 5.42974053750000 6.95662618437500 
