16

 C -2.96850812500000 1.76336600312500 5.59618663437500 
 C -3.10555612500000 5.36812300312500 5.61888763437500 
 C -4.10032312500000 1.09934100312500 5.00304263437500 
 C -4.31451012500000 4.86174200312500 5.01728763437500 
 N -1.90487612500000 1.94960300312500 4.81354563437500 
 N -2.10124512500000 5.62767900312500 4.77247963437500 
 N -3.85584612500000 0.627159003125002 3.77854163437500 
 N -4.16866612500000 4.51628400312500 3.73044863437500 
 N -4.77543312500000 1.40923200312500 7.55653563437500 
 N -4.83368012500000 5.32443700312500 7.49124263437500 
 S -5.44269012500000 0.773990003125003 6.16574863437500 
 S -5.69776912500000 4.97479400312500 6.11301463437500 
 S -2.37107112500000 1.13099600312500 3.32185963437500 
 S -2.60367212500000 4.96364700312500 3.32302563437500 
 S -3.27417712500000 2.12066000312500 7.33588963437500 
 S -3.24081212500000 5.65997200312500 7.25013963437500 
