16

 C -3.11289888125000 1.57972385312500 5.45025509687500 
 C -3.19807788125000 5.28398985312500 5.96405909687500 
 C -4.30983888125000 1.06197785312500 4.76374709687500 
 C -4.44365488125000 5.00495585312500 5.32197209687500 
 N -2.16584588125000 1.90320185312500 4.56420209687500 
 N -2.12590088125000 5.35084585312500 5.14237009687500 
 N -4.22383388125000 0.870124853124996 3.46739409687500 
 N -4.36297588125000 4.88358185312500 3.96891309687500 
 N -4.91644888125000 0.997047853124997 7.25974309687500 
 N -4.92721588125000 5.14719285312500 7.89553609687500 
 S -5.66619188125000 0.665473853124996 5.77779709687500 
 S -5.75971988125000 4.93411985312500 6.45525709687500 
 S -2.69550188125000 1.42192685312500 3.07748109687500 
 S -2.67693088125000 5.04588885312500 3.66251409687500 
 S -3.32212588125000 1.41967285312500 7.20691909687500 
 S -3.25096188125000 5.39500385312500 7.69009709687500 
