16

 C -3.13470767812500 1.44289147187500 5.63970950625000 
 C -2.85873567812500 5.24601547187500 5.44792650625000 
 C -4.42294767812500 1.11972747187500 5.01192750625000 
 C -4.08307667812500 4.86726247187500 4.80956450625000 
 N -2.06552667812500 1.49876247187500 4.84963150625000 
 N -1.85244967812500 5.39239547187500 4.53793650625000 
 N -4.32251867812500 1.05897047187500 3.68555650625000 
 N -4.12260567812500 4.76050547187500 3.47259350625000 
 N -4.79048167812500 1.53822247187500 7.53075250625000 
 N -4.68819867812500 5.05246347187500 7.36667350625000 
 S -5.67300667812500 0.862552471874999 6.27635350625000 
 S -5.42725667812500 4.55223447187500 5.85176850625000 
 S -2.70410567812500 1.44157547187500 3.32499150625000 
 S -2.57834467812500 5.15484247187500 3.04012350625000 
 S -3.16614167812500 1.77720247187500 7.33996950625000 
 S -3.05444267812500 5.41570047187500 7.24364150625000 
