16

 C -3.35775956875000 1.41758040625000 5.40220704062500 
 C -3.18341656875000 4.94317140625000 4.96677904062500 
 C -4.41854356875000 0.607249406250004 4.79899904062500 
 C -4.37098056875000 4.44885940625000 4.29274404062500 
 N -2.43102956875000 1.88681040625000 4.53791004062500 
 N -2.13799756875000 5.18325240625000 4.18699904062500 
 N -4.23998556875000 0.271704406250004 3.53335104062500 
 N -4.23079256875000 4.46482440625000 2.98084304062500 
 N -5.13038956875000 0.785131406250004 7.25124804062500 
 N -4.85096256875000 4.50494540625000 6.84777204062500 
 S -5.77683556875000 0.199555406250004 5.82780104062500 
 S -5.53040656875000 3.87109640625000 5.45576004062500 
 S -2.88562356875000 1.16098540625000 3.11910604062500 
 S -2.61377956875000 4.97946640625000 2.67359204062500 
 S -3.60090756875000 1.44044440625000 7.19174904062500 
 S -3.39850156875000 5.20374140625000 6.63013004062500 
