16

 C -3.27264829375000 1.59034816250000 5.47292801250000 
 C -3.20413729375000 5.18126116250000 5.68433601250000 
 C -4.59390829375000 1.27097816250000 4.97135401250000 
 C -4.46813629375000 4.77611216250000 5.05797801250000 
 N -2.29237629375000 1.72366916250000 4.59599601250000 
 N -2.20172829375000 5.53929116250000 4.86093101250000 
 N -4.57163029375000 1.06378716250000 3.67816501250000 
 N -4.32817829375000 4.66611816250000 3.75308201250000 
 N -4.83578729375000 1.06911016250000 7.56445001250000 
 N -4.97339529375000 4.95007316250000 7.56869901250000 
 S -5.82244029375000 0.948730162499998 6.23269301250000 
 S -5.67667929375000 4.30597416250000 6.23141401250000 
 S -3.01303029375000 1.48257916250000 3.14114701250000 
 S -2.75750329375000 5.16441216250000 3.33422801250000 
 S -3.27953629375000 1.63172916250000 7.20183301250000 
 S -3.41529729375000 5.39930116250000 7.42403101250000 
