16

 C -2.98574743750000 1.26261199062500 5.33819681250000 
 C -2.87408143750000 5.14310599062500 5.68539681250000 
 C -4.08657843750000 0.733714990625001 4.68804781250000 
 C -4.12958543750000 4.69716999062500 5.17250781250000 
 N -1.87154743750000 1.37504399062500 4.62131981250000 
 N -1.92944943750000 5.17031399062500 4.75903981250000 
 N -3.91523043750000 0.560975990625001 3.36619381250000 
 N -4.17737243750000 4.51986999062500 3.88186081250000 
 N -4.77056443750000 0.876038990625001 7.21336281250000 
 N -4.43094143750000 4.80315199062500 7.68470781250000 
 S -5.42787143750000 0.385284990625001 5.73370881250000 
 S -5.29077343750000 4.28195299062500 6.34669781250000 
 S -2.29568743750000 0.951754990625001 3.10787181250000 
 S -2.66260143750000 4.83311299062500 3.32313781250000 
 S -3.24598743750000 1.52087999062500 7.07259981250000 
 S -2.89776043750000 5.35116699062500 7.40710481250000 
