16

 C -3.28146653125000 1.21121906875000 5.52595348437500 
 C -3.05901353125000 5.10584006875000 5.43261348437500 
 C -4.57437953125000 0.903274068749999 4.94305148437500 
 C -4.28887653125000 4.75027506875000 4.77205448437500 
 N -2.29221553125000 1.36509606875000 4.65712248437500 
 N -1.98624753125000 5.21535906875000 4.66419848437500 
 N -4.58168453125000 0.663724068749999 3.63125248437500 
 N -4.17575953125000 4.76037906875000 3.44998048437500 
 N -4.81136353125000 0.791125068749999 7.50102848437500 
 N -4.80056753125000 4.61182406875000 7.27568748437500 
 S -5.84099953125000 0.853023068749999 6.16536748437500 
 S -5.66880353125000 4.61358306875000 5.85557948437500 
 S -3.03818653125000 1.05589806875000 3.19328448437500 
 S -2.55550053125000 5.02070406875000 3.08585248437500 
 S -3.25852753125000 1.47402606875000 7.29473748437500 
 S -3.25957653125000 5.14817706875000 7.15765948437500 
