16

 C -2.93505444687500 2.06958382187500 5.42174080312500 
 C -3.02235244687500 5.16784382187500 5.43460780312500 
 C -4.10519544687500 1.51905382187500 4.82859380312500 
 C -4.25522744687500 4.86966682187500 4.70252580312500 
 N -1.94932744687500 2.31611682187500 4.57213580312500 
 N -1.93575944687500 5.24299782187500 4.67922780312500 
 N -3.92334444687500 1.26557582187500 3.54875780312500 
 N -4.10543644687500 4.85438082187500 3.41408680312500 
 N -4.61697044687500 1.85585682187500 7.33182980312500 
 N -4.98567644687500 5.01056482187500 7.15065080312500 
 S -5.40904644687500 1.45819582187500 5.97002980312500 
 S -5.61500544687500 4.54907682187500 5.71828180312500 
 S -2.38151244687500 1.78217982187500 3.05415980312500 
 S -2.53950444687500 5.17071782187500 3.04875180312500 
 S -3.05176944687500 2.26021382187500 7.12416280312500 
 S -3.33847044687500 5.31814082187500 7.12991580312500 
