16

 C -3.55252175000000 1.45939674375000 5.32862157812500 
 C -3.34390175000000 5.05755274375000 5.79601057812500 
 C -4.67855975000000 0.948186743750000 4.56430957812500 
 C -4.55295575000000 4.60316074375000 5.15822357812500 
 N -2.42027875000000 1.72827574375000 4.67425057812500 
 N -2.27602075000000 5.13158374375000 4.94413457812500 
 N -4.40639075000000 0.957486743750001 3.22971857812500 
 N -4.49359375000000 4.59174674375000 3.81559957812500 
 N -5.26132375000000 0.849083743750001 7.14420957812500 
 N -5.05710375000000 4.96034374375000 7.60873057812500 
 S -5.95763075000000 0.636688743750001 5.67971357812500 
 S -5.87892375000000 4.54899474375000 6.23706157812500 
 S -2.90690075000000 1.60008174375000 3.04171157812500 
 S -2.85236775000000 4.83761574375000 3.44647757812500 
 S -3.78512575000000 1.63402274375000 7.07054057812500 
 S -3.41538775000000 5.16493974375000 7.51860757812500 
