16

 C -3.24142252812500 1.11416372812500 5.46548255312500 
 C -3.29568152812500 5.25257072812500 5.17094455312500 
 C -4.44373552812500 0.696202728125000 4.74731855312500 
 C -4.29551352812500 4.44557272812500 4.48728855312500 
 N -2.18567952812500 1.36412272812500 4.66881555312500 
 N -2.35954052812500 5.76923772812500 4.35052955312500 
 N -4.38273952812500 0.660152728124999 3.39673455312500 
 N -4.04708552812500 4.30026372812500 3.17874855312500 
 N -5.17913152812500 0.843625728125000 7.21920955312500 
 N -4.94017452812500 4.48740872812500 7.00546655312500 
 S -5.80076252812500 0.262098728124999 5.74247655312500 
 S -5.57293852812500 3.82178472812500 5.53503855312500 
 S -2.76611352812500 1.01215972812500 3.15532755312500 
 S -2.71425452812500 5.30811072812500 2.85267155312500 
 S -3.59057852812500 1.31105272812500 7.17888955312500 
 S -3.46961352812500 5.28444172812500 6.89167655312500 
