16

 C -3.05246295312501 1.25141707499999 5.53181010625000 
 C -2.96071595312501 5.25379307499999 5.50536810625000 
 C -4.22371595312501 0.909799074999993 4.72489210625000 
 C -4.20592695312501 4.94359507499999 4.86084810625000 
 N -1.90174495312501 1.30642207499999 4.87850910625000 
 N -1.88826295312501 5.20812007499999 4.67923110625000 
 N -3.91075795312501 0.853272074999992 3.45616610625000 
 N -4.08223395312501 4.68049807499999 3.56518710625000 
 N -4.91475695312501 1.31205607499999 7.15277010625000 
 N -4.78218795312501 5.22369407499999 7.38604410625000 
 S -5.62430295312501 0.715139074999993 5.82776410625000 
 S -5.57816195312501 4.88791607499999 5.88672410625000 
 S -2.29309295312501 1.03291307499999 3.25417410625000 
 S -2.51275595312501 4.85882307499999 3.12017910625000 
 S -3.28247495312501 1.47667607499999 7.20117010625000 
 S -3.07536695312501 5.48613307499999 7.27374810625000 
