16

 C -3.04655140000000 1.20477818125000 5.66321016875000 
 C -2.97855640000000 4.83234118125000 5.46127216875000 
 C -4.30659840000000 0.880112181250002 5.11317616875000 
 C -4.22573540000000 4.33805318125000 4.96439716875000 
 N -2.01818340000000 1.31103118125000 4.80270416875000 
 N -1.92951140000000 4.88477318125000 4.60401016875000 
 N -4.30449040000000 0.702229181250002 3.79973816875000 
 N -4.11600540000000 4.03394018125000 3.66106616875000 
 N -4.76873140000000 1.28399718125000 7.62446216875000 
 N -4.70590540000000 4.86117018125000 7.33612116875000 
 S -5.62120040000000 0.837900181250002 6.22129316875000 
 S -5.58770440000000 4.35164018125000 6.05324116875000 
 S -2.71796440000000 0.892679181250002 3.36517816875000 
 S -2.54920240000000 4.29938718125000 3.18335616875000 
 S -3.18020740000000 1.57229018125000 7.31508916875000 
 S -3.11754740000000 5.31021418125000 7.18366616875000 
