16

 C -2.88180664062499 1.72128828750000 5.73879485312500 
 C -3.33883264062499 5.39219128750000 5.33548685312500 
 C -4.15749564062499 1.52825128750000 5.09486685312500 
 C -4.55259364062499 4.91805728750000 4.73116985312500 
 N -1.86116964062499 1.89343228750000 4.91203085312500 
 N -2.30047564062499 5.63793828750000 4.53609185312500 
 N -4.10593064062499 1.55507328750000 3.77565985312500 
 N -4.50842864062499 4.85808828750000 3.41383785312500 
 N -4.69336064062500 1.66564628750000 7.62284585312500 
 N -4.97373964062499 5.08267928750000 7.33091985312500 
 S -5.48142264062500 1.42405128750000 6.17321985312500 
 S -5.68488364062499 4.46548728750000 6.00877785312500 
 S -2.56872164062499 1.73242628750000 3.34181085312500 
 S -2.95201764062499 5.33315128750000 3.01573185312500 
 S -3.00403864062499 1.78235028750000 7.44284485312500 
 S -3.43426564062499 5.72010128750000 7.02707685312500 
