16

 C -2.85412855937500 1.19415977187500 5.58619578437500 
 C -3.03607055937500 5.16569877187500 5.50682078437500 
 C -4.10898455937500 0.983701771874999 4.86316578437500 
 C -4.25249955937500 4.85214577187500 4.82280278437500 
 N -1.75689855937500 1.13065977187500 4.76581978437500 
 N -1.88138255937500 5.22552077187500 4.79015578437500 
 N -4.00277555937500 0.816682771875000 3.56623578437500 
 N -4.06510355937500 4.67949977187500 3.52026578437500 
 N -4.99004655937500 1.32267777187500 7.26149578437500 
 N -4.78249455937500 5.28740877187500 7.34542078437500 
 S -5.55286355937500 0.831904771875001 5.74047478437500 
 S -5.61577255937500 4.84851477187500 6.05785278437500 
 S -2.41099855937500 0.989885771875000 3.24818578437500 
 S -2.38733655937500 4.90305577187500 3.30046978437500 
 S -3.30106755937500 1.59724977187500 7.29178478437500 
 S -3.16922455937500 5.45830877187500 7.17118778437500 
