16

 C -3.09321992187500 1.09221621875000 5.40846066562500 
 C -3.09177492187500 4.74933521875000 5.51286266562500 
 C -4.31123492187500 0.601032218750002 4.78371466562500 
 C -4.41517492187500 4.73206521875000 4.91174866562500 
 N -2.11536492187500 1.43485721875000 4.57900566562500 
 N -2.13141992187500 4.55776821875000 4.58972966562500 
 N -4.30187992187500 0.529446218750001 3.45906966562500 
 N -4.46025492187500 4.57871521875000 3.61018766562500 
 N -4.83174192187500 0.584091218750002 7.29051566562500 
 N -4.83810492187500 4.98753621875000 7.39338066562500 
 S -5.62088592187500 0.223081218750002 5.86780566562500 
 S -5.75384492187500 4.85464521875000 6.02273866562500 
 S -2.72975592187500 1.06390721875000 3.07426566562500 
 S -2.81104992187500 4.42296621875000 3.11679766562500 
 S -3.25121192187500 0.961505218750002 7.20102866562500 
 S -3.17004992187500 4.84515921875000 7.28694166562500 
