16

 C -3.04978544062500 1.80167673437500 5.49162982812500 
 C -3.07406844062500 5.35774273437500 5.65369882812500 
 C -4.32116644062500 1.37613173437500 4.95868882812500 
 C -4.24372944062500 4.83681573437500 4.97803582812500 
 N -2.06961544062500 1.81497073437500 4.61669382812500 
 N -2.01560544062500 5.48710773437500 4.84556782812500 
 N -4.31485344062500 1.11842273437500 3.65937382812500 
 N -4.10830244062500 4.66810973437500 3.65096482812500 
 N -4.66677244062500 1.35986973437500 7.59288982812500 
 N -4.90399544062500 4.79000073437500 7.47475282812500 
 S -5.53243844062500 1.28799773437500 6.15169582812500 
 S -5.60785644062500 4.57231573437500 5.98562482812500 
 S -2.75536444062500 1.53475873437500 3.08007282812500 
 S -2.53399344062500 5.15304673437500 3.29939382812500 
 S -3.04977544062500 1.68745373437500 7.29197782812500 
 S -3.29901244062500 5.27296273437500 7.42395682812500 
