16

 C -3.02923933125000 1.88897709375000 5.79330037187500 
 C -3.16924833125000 5.41483109375000 5.65317137187500 
 C -4.26916933125000 1.55973309375000 5.10082137187500 
 C -4.38515533125000 4.95064309375000 5.07501237187500 
 N -2.00575533125000 1.96024609375000 4.93432237187500 
 N -2.11700333125000 5.50633009375000 4.82199237187500 
 N -4.12507333125000 1.38576209375000 3.78298337187500 
 N -4.29855633125000 4.79302909375000 3.75567937187500 
 N -4.77414333125000 1.42722409375000 7.72288837187500 
 N -4.79861833125000 5.14493509375000 7.64850237187500 
 S -5.62806933125000 1.50349709375000 6.29534337187500 
 S -5.69685333125000 4.85251209375000 6.28635837187500 
 S -2.57615933125000 1.78421409375000 3.39302537187500 
 S -2.74365433125000 5.11897409375000 3.30914437187500 
 S -3.08902333125000 1.73656109375000 7.52529137187500 
 S -3.18511833125000 5.37985909375000 7.31877237187500 
