16

 C -3.25348260625000 1.53958695312500 5.33085706562500 
 C -3.00254660625000 5.07146495312500 5.43750506562500 
 C -4.43180760625000 0.999932953125001 4.63612006562500 
 C -4.29471060625000 4.97981995312500 4.77021206562500 
 N -2.22789560625000 1.72149395312500 4.49835306562500 
 N -1.99715960625000 5.11550395312500 4.58525306562500 
 N -4.30948360625000 0.895153953125001 3.31552206562500 
 N -4.23587860625000 5.07777295312500 3.45288206562500 
 N -5.02112760625000 1.22067795312500 7.18404606562500 
 N -4.87761060625000 4.89279495312500 7.23963606562500 
 S -5.71952860625000 0.798470953125001 5.70247706562500 
 S -5.72967260625000 4.80775795312500 5.77737306562500 
 S -2.80265460625000 1.43485695312500 2.99427406562500 
 S -2.66017060625000 5.15373995312500 3.03465506562500 
 S -3.36974460625000 1.58082495312500 7.09471306562500 
 S -3.15930160625000 4.84620095312500 7.14296706562500 
