16

 C -2.81691607812500 1.42111508750000 5.78279442500000 
 C -3.31847507812500 5.18099408750000 5.66297742500000 
 C -4.08915507812500 1.32374308750000 5.13737142500000 
 C -4.55021007812500 4.89601308750000 4.97670942500000 
 N -1.76668607812500 1.37775208750000 4.95265742500000 
 N -2.28685807812500 5.29502008750000 4.81010042500000 
 N -4.10621607812500 1.28530808750000 3.79211642500000 
 N -4.50607507812500 4.79102608750000 3.65213042500000 
 N -4.57226907812500 1.37580408750000 7.70887542500000 
 N -5.09345907812500 4.91538208750000 7.46076042500000 
 S -5.45090307812500 1.28022008750000 6.29899042500000 
 S -5.86598807812500 4.69216908750000 6.03703542500000 
 S -2.47781507812500 1.35323308750000 3.46972942500000 
 S -2.87381207812500 4.95907108750000 3.34016342500000 
 S -2.94598607812500 1.53601108750000 7.56452742500000 
 S -3.44899407812500 5.13802608750000 7.36700042500000 
