16

 C -3.14753887187500 0.934821784375001 5.58816486562500 
 C -2.96849587187500 5.06467578437500 5.58785586562500 
 C -4.34012587187500 0.568067784375001 4.84276586562500 
 C -4.14168987187500 4.55335478437500 4.93970686562500 
 N -2.05991687187500 1.23109478437500 4.83244986562500 
 N -1.91610887187500 5.26886478437500 4.79687186562500 
 N -4.10893087187500 0.480897784375000 3.53116686562500 
 N -4.02027387187500 4.44243978437500 3.62094786562500 
 N -5.09010587187500 1.05639078437500 7.35585986562500 
 N -4.70595687187500 4.77304178437500 7.46153986562500 
 S -5.81843087187500 0.422087784375001 6.01651286562500 
 S -5.46828087187500 4.28122078437500 6.08943286562500 
 S -2.49430587187500 0.826048784375001 3.25612486562500 
 S -2.37822987187500 4.86983478437500 3.26451086562500 
 S -3.48427287187500 1.27392278437500 7.30407586562500 
 S -3.16056887187500 5.34910078437500 7.28850886562500 
