16

 C -2.96355689375000 1.22119728750000 5.32040370625000 
 C -2.91619489375000 5.09490428750000 5.61421270625000 
 C -4.16964789375000 0.712057287500002 4.62318770625000 
 C -4.16686189375000 4.54437328750000 5.10824070625000 
 N -2.06513989375000 1.65854628750000 4.47686270625000 
 N -2.01414789375000 5.34373228750000 4.69167470625000 
 N -4.03516489375000 0.721055287500002 3.29486770625000 
 N -4.12637889375000 4.23822628750000 3.81765070625000 
 N -4.70446489375000 0.642333287500002 7.12908570625000 
 N -4.39320289375000 5.02593428750000 7.66544370625000 
 S -5.38547689375000 0.254314287500002 5.69519070625000 
 S -5.39476989375000 4.51677028750000 6.38377670625000 
 S -2.62200689375000 1.44150728750000 2.88231170625000 
 S -2.71910789375000 4.83815428750000 3.27064070625000 
 S -3.18414089375000 1.23715228750000 7.04749870625000 
 S -2.78919389375000 5.32145228750000 7.29044770625000 
