16

 C -2.93788693750000 1.53293719062500 5.34073037187500 
 C -3.27828193750000 5.29364119062500 5.90236037187500 
 C -4.16466693750000 1.04328519062500 4.71897237187500 
 C -4.44744693750000 4.87265619062500 5.16212237187500 
 N -1.90879693750000 1.53035819062500 4.48551137187500 
 N -2.21340093750000 5.47994219062500 5.19456637187500 
 N -4.06594793750000 0.772675190625001 3.41898337187500 
 N -4.22145793750000 4.72639019062500 3.87938437187500 
 N -4.84098293750000 1.30307419062500 7.12743237187500 
 N -5.05870293750000 5.07491819062500 7.69879337187500 
 S -5.49183693750000 0.686737190625001 5.72809137187500 
 S -5.79368693750000 4.77431019062500 6.27920437187500 
 S -2.55377793750000 1.17556319062500 2.99903837187500 
 S -2.54507493750000 5.12133419062500 3.68144537187500 
 S -3.27094593750000 1.78630619062500 7.11515737187500 
 S -3.47224893750000 5.51490719062500 7.58222737187500 
