16

 C -3.17351519062500 1.29980949062500 5.68503608437500 
 C -3.50007219062500 5.32644949062500 5.37378808437500 
 C -4.25745219062500 0.592851490625002 5.03433108437500 
 C -4.49044219062500 4.44704849062500 4.82921708437500 
 N -2.23540119062500 1.61556049062500 4.84786008437500 
 N -2.40799619062500 5.59001749062500 4.61017308437500 
 N -4.18908519062500 0.475680490625002 3.69166908437500 
 N -4.24691719062500 4.13549749062500 3.53888608437500 
 N -4.83458219062500 0.835506490625002 7.50169108437500 
 N -5.27068419062500 4.99454649062500 7.26266008437500 
 S -5.59613519062500 0.307562490625002 6.13214008437500 
 S -5.80672819062500 4.13861849062500 5.88462308437500 
 S -2.62826419062500 1.11011949062500 3.37622408437500 
 S -2.79000719062500 4.87544749062500 3.15213108437500 
 S -3.34211419062500 1.66527149062500 7.39126408437500 
 S -3.79939919062500 5.73871149062500 7.01527308437500 
