16

 C -3.21581124687500 1.08543666875000 5.50927483125000 
 C -3.33691124687500 4.71757766875000 5.52138683125000 
 C -4.29476224687500 0.634038668749997 4.66569483125000 
 C -4.62413524687500 4.70585466875000 4.90509383125000 
 N -2.13962524687500 1.52869566875000 4.87810383125000 
 N -2.31134524687500 4.75530066875000 4.65867583125000 
 N -4.04789924687500 0.744634668749998 3.35166983125000 
 N -4.58199624687500 4.52650866875000 3.59066683125000 
 N -4.93843724687500 0.174756668749998 7.18832283125000 
 N -4.96841424687500 4.63705466875000 7.43167183125000 
 S -5.67494624687500 4.900866874999776E-002 5.66111383125000 
 S -5.89721224687500 4.60573866875000 6.09719183125000 
 S -2.51120424687500 1.33621466875000 3.30265883125000 
 S -2.96854324687500 4.63115166875000 3.16692083125000 
 S -3.46697224687500 1.00236866875000 7.26369783125000 
 S -3.32339524687500 4.84845966875000 7.27323583125000 
