16

 C -3.16495337499999 1.34787869375000 5.56868289375000 
 C -2.94535237499999 5.24890469375000 5.44509389375000 
 C -4.37042837499999 0.787832693750003 5.05230289375000 
 C -4.20279637499999 4.87281569375000 4.83093889375000 
 N -2.24982237499999 1.60690769375000 4.67893589375000 
 N -1.94933137499999 5.50181069375000 4.58865389375000 
 N -4.36740837499999 0.601472693750003 3.75102989375000 
 N -4.15775737499999 4.85677569375000 3.50375789375000 
 N -4.80215737499999 1.24849369375000 7.55768989375000 
 N -4.57285937499999 5.05289569375000 7.35673989375000 
 S -5.61037237499999 0.547434693750003 6.25389889375000 
 S -5.41211637499999 4.66866869375000 6.01878189375000 
 S -2.83841437499999 1.03998169375000 3.17737589375000 
 S -2.65716337499999 5.29842669375000 3.03875789375000 
 S -3.24105437499999 1.78839669375000 7.28020989375000 
 S -2.99853437499999 5.39666669375000 7.15543289375000 
