16

 C -3.29337643437500 1.22264825000000 5.53619427500000 
 C -3.38763143437500 4.68288825000000 5.32899827500000 
 C -4.45869643437500 0.713579250000000 4.85930127500000 
 C -4.63098943437500 4.50630225000000 4.64164227500000 
 N -2.22451143437500 1.55712425000000 4.80003727500000 
 N -2.42487143437500 5.00734325000000 4.49900027500000 
 N -4.25002843437500 0.565851250000001 3.53668527500000 
 N -4.57777643437500 4.50328225000000 3.30428927500000 
 N -5.08056943437500 0.961902250000001 7.35746627500000 
 N -5.15822843437500 4.68411125000000 7.18780227500000 
 S -5.68678843437500 0.168206250000000 5.94624127500000 
 S -5.98307943437500 4.49567525000000 5.77064327500000 
 S -2.76948843437500 1.20108125000000 3.30237727500000 
 S -3.00163043437500 4.96655425000000 2.96729027500000 
 S -3.46146143437500 1.36762525000000 7.19630727500000 
 S -3.49722543437500 4.92036225000000 7.01981627500000 
