16

 C -2.96634443437500 1.53856598750000 5.34470680625000 
 C -3.10170143437500 5.29201498750000 5.52787280625000 
 C -4.12613143437500 0.910086987500001 4.70714880625000 
 C -4.22199643437500 4.64958998750000 4.88013680625000 
 N -1.97382043437500 1.70832298750000 4.50073180625000 
 N -2.04621143437500 5.39495198750000 4.68813980625000 
 N -4.02322643437500 0.696978987500001 3.37387280625000 
 N -4.07628443437500 4.19743998750000 3.65874680625000 
 N -4.49560843437500 1.08344398750000 7.38998480625000 
 N -4.88170643437500 4.89508498750000 7.37137880625000 
 S -5.33690743437500 0.579058987500001 6.03316080625000 
 S -5.60545143437500 4.37243598750000 5.89239580625000 
 S -2.43444943437500 1.17963498750000 2.97349380625000 
 S -2.55707243437500 4.61085398750000 3.24386880625000 
 S -2.98818043437500 1.75183198750000 7.04837380625000 
 S -3.31487043437500 5.42685598750000 7.24483180625000 
