16

 C -3.31685522812500 1.46447791875000 5.46229540937500 
 C -3.33093922812500 5.15979591875000 5.38991340937500 
 C -4.56533922812500 0.988451918749999 4.76003940937500 
 C -4.50339222812500 4.48743291875000 4.83300840937500 
 N -2.27252522812500 1.65186291875000 4.65723940937500 
 N -2.33475022812500 5.39597991875000 4.52431540937500 
 N -4.39936322812500 0.842933918749999 3.43001640937500 
 N -4.45847922812500 4.46449791875000 3.51947140937500 
 N -5.00759322812500 1.25939091875000 7.31268540937500 
 N -5.01683922812500 4.64393791875000 7.26365640937500 
 S -5.81326722812500 0.724375918749999 5.93557240937500 
 S -5.77275822812500 4.07780991875000 5.89278440937500 
 S -2.79850122812500 1.21548891875000 3.16667740937500 
 S -2.91496922812500 4.87411291875000 3.05560240937500 
 S -3.33318922812500 1.51040491875000 7.19592440937500 
 S -3.40408822812500 5.11902391875000 7.13757940937500 
