16

 C -3.62139289687500 1.08716888125000 5.55867315000000 
 C -2.98014289687500 4.95988988125000 5.40737915000000 
 C -4.78635589687500 0.587588881250002 4.87678315000000 
 C -4.21092889687500 4.46261188125000 4.85013915000000 
 N -2.59001489687500 1.48017388125000 4.79490715000000 
 N -1.98941389687500 5.23709888125000 4.57308815000000 
 N -4.56036189687500 0.399670881250001 3.56647915000000 
 N -4.05726989687500 4.18433988125000 3.57330715000000 
 N -5.33916589687500 0.559486881250002 7.48039615000000 
 N -4.66537189687500 4.82299088125000 7.34377015000000 
 S -6.07403989687500 0.233959881250001 6.04924015000000 
 S -5.55319889687500 4.38554588125000 6.02863815000000 
 S -2.94753489687500 0.908913881250002 3.27659515000000 
 S -2.46082789687500 4.64798288125000 3.12540215000000 
 S -3.80897789687500 1.15976388125000 7.32407015000000 
 S -3.12494589687500 5.37630288125000 7.07435915000000 
