16

 C -3.17745324687500 0.863827515625002 5.43881791875000 
 C -3.23023324687500 4.55451951562500 5.55656191875000 
 C -4.45582824687500 0.558524515625002 4.83242691875000 
 C -4.51595724687500 4.63789651562500 4.93282891875000 
 N -2.24125624687500 1.24718351562500 4.54835191875000 
 N -2.16914124687500 4.47685551562500 4.74170591875000 
 N -4.42130124687500 0.715562515625003 3.51298391875000 
 N -4.43601424687500 4.69087551562500 3.57913991875000 
 N -4.87498024687500 0.423627515625002 7.34513991875000 
 N -4.84814024687500 4.67695851562500 7.52786191875000 
 S -5.70258024687500 0.232240515625002 5.93062391875000 
 S -5.84885124687500 4.62520451562500 6.15006291875000 
 S -2.95032424687500 1.15158551562500 3.02340691875000 
 S -2.84679624687500 4.65159151562500 3.20825791875000 
 S -3.27795424687500 0.901576515625003 7.17223991875000 
 S -3.16979824687500 4.77975751562500 7.26400391875000 
