16

 C -3.09858103125000 1.58992520312500 5.63987853125000 
 C -3.23670503125000 4.91937020312500 5.45588653125000 
 C -4.41125003125000 1.28661220312500 5.04892053125000 
 C -4.46960303125000 4.71332320312500 4.74360053125000 
 N -2.08267403125000 1.57219920312500 4.74604953125000 
 N -2.16317703125000 4.88451520312500 4.65964053125000 
 N -4.42602903125000 1.15677720312500 3.70002953125000 
 N -4.35650803125000 4.66064520312500 3.40737853125000 
 N -4.81982403125000 1.63239320312500 7.56269053125000 
 N -5.02934003125000 4.88410020312500 7.34293653125000 
 S -5.68922703125000 1.20992920312500 6.20710253125000 
 S -5.82179303125000 4.57442120312500 5.87894253125000 
 S -2.91990803125000 1.39221720312500 3.29952253125000 
 S -2.73686103125000 4.84233620312500 3.11304753125000 
 S -3.16651403125000 1.82506020312500 7.36999353125000 
 S -3.38855403125000 5.10150420312500 7.17975453125000 
