16

 C -3.33697958437500 1.29279048750000 5.20574454687500 
 C -3.17771158437500 5.14243948750000 5.33332154687500 
 C -4.56840558437500 0.760270487500003 4.63904054687500 
 C -4.49551358437500 4.71817048750000 4.79336154687500 
 N -2.32799558437500 1.42833048750000 4.36977654687500 
 N -2.22453658437500 5.18613948750000 4.43158954687500 
 N -4.43147658437500 0.457771487500003 3.34271154687500 
 N -4.46144658437500 4.38545448750000 3.47570854687500 
 N -4.94264058437500 0.936136487500004 7.15712054687500 
 N -4.85943658437500 4.77402248750000 7.41170954687500 
 S -5.87184858437500 0.799750487500004 5.79803054687500 
 S -5.78921858437500 4.62684348750000 5.96975554687500 
 S -2.85853958437500 0.746860487500003 2.96534754687500 
 S -2.91331158437500 4.64418848750000 2.97988054687500 
 S -3.40689858437500 1.44141048750000 6.98865854687500 
 S -3.23507158437500 5.37173648750000 7.15786554687500 
