16

 C -3.34311921250000 1.43330614375000 5.52482833437500 
 C -3.37977621250000 5.12471514375000 5.15040133437500 
 C -4.64075521250000 0.946596143750001 4.90916333437500 
 C -4.50577821250000 4.44473114375000 4.57486833437500 
 N -2.36998421250000 1.64534914375000 4.66738433437500 
 N -2.37684321250000 5.38071714375000 4.33477233437500 
 N -4.50282921250000 0.648752143750000 3.61216033437500 
 N -4.31185821250000 4.20008714375000 3.27638733437500 
 N -4.99855821250000 1.27210714375000 7.47602933437500 
 N -5.07971421250000 4.77952614375000 7.04675333437500 
 S -5.91977821250000 0.794135143750001 6.09517533437500 
 S -5.72244021250000 3.94608314375000 5.69488333437500 
 S -2.92915921250000 1.05070514375000 3.22857633437500 
 S -2.79012121250000 4.69912514375000 2.88130533437500 
 S -3.36519321250000 1.69057114375000 7.21855633437500 
 S -3.54163321250000 5.38448014375000 6.81177333437500 
