16

 C -3.19861177187500 1.09476644062500 5.50919182500000 
 C -3.26021177187500 4.68510244062500 5.56464282500000 
 C -4.31563077187500 0.680776440624998 4.73091082500000 
 C -4.55227777187500 4.39451744062500 5.03834782500000 
 N -2.12906877187500 1.47564944062500 4.83996982500000 
 N -2.21341177187500 4.74601544062500 4.71736482500000 
 N -4.12579777187500 0.823672440624998 3.42993282500000 
 N -4.51713277187500 4.47751444062500 3.71377982500000 
 N -5.02401977187500 0.236229440624998 7.17450782500000 
 N -4.97131577187500 4.64050044062500 7.57492782500000 
 S -5.67400577187500 6.446344062499776E-002 5.66206982500000 
 S -5.86882877187500 4.58414744062500 6.16134882500000 
 S -2.51973077187500 1.34041544062500 3.17817982500000 
 S -2.95508677187500 4.66733644062500 3.20817682500000 
 S -3.53478977187500 0.857132440624998 7.22611582500000 
 S -3.31372777187500 4.94340644062500 7.29705082500000 
