16

 C -3.36514933125000 1.79904025312500 5.63603489375000 
 C -2.96008333125000 5.14610125312500 5.50850489375000 
 C -4.54390433125000 1.33963725312500 4.99016489375000 
 C -4.23209933125000 4.84493525312500 4.86087689375000 
 N -2.30643133125000 1.90114225312500 4.78650689375000 
 N -1.98029233125000 5.24191225312500 4.63552889375000 
 N -4.34736633125000 0.961850253125001 3.72650589375000 
 N -4.14357533125000 4.73304025312500 3.56507589375000 
 N -5.10998733125000 1.28521425312500 7.49200189375000 
 N -4.63795033125000 4.97411725312500 7.41607289375000 
 S -5.89316833125000 1.13638325312500 6.02450289375000 
 S -5.50005733125000 4.75282325312500 6.04725489375000 
 S -2.84071733125000 1.41747325312500 3.28738289375000 
 S -2.55691933125000 5.04930125312500 3.11359589375000 
 S -3.49142733125000 1.87921825312500 7.38945489375000 
 S -3.00590833125000 5.27533025312500 7.21808989375000 
