16

 C -2.99693225000000 1.64037418437500 5.42908615312500 
 C -3.10666225000000 5.17976218437500 5.64980115312500 
 C -4.30532025000000 1.36150418437500 4.93345615312500 
 C -4.25656425000000 4.69915018437500 4.94138715312500 
 N -2.05218325000000 1.89150618437500 4.53389215312500 
 N -2.06219225000000 5.53743418437500 4.91958815312500 
 N -4.25497925000000 1.16895918437500 3.61353115312500 
 N -4.01354625000000 4.59815918437500 3.63704115312500 
 N -4.46826925000000 1.24380518437500 7.39954215312500 
 N -4.84240725000000 4.77947418437500 7.44524515312500 
 S -5.54798625000000 1.20861018437500 6.09857915312500 
 S -5.62750525000000 4.49422218437500 6.02803315312500 
 S -2.65297525000000 1.33074018437500 3.12726015312500 
 S -2.47438925000000 5.09052718437500 3.39583415312500 
 S -2.89161025000000 1.64319518437500 7.13266315312500 
 S -3.26145025000000 5.33376918437500 7.34819815312500 
