16

 C -3.14668815937500 1.24940828750000 5.86036558125000 
 C -3.04488115937500 4.75999928750000 5.33196258125000 
 C -4.35069715937500 0.817339287500000 5.21411858125000 
 C -4.36455315937500 4.48097328750000 4.79378458125000 
 N -2.18747815937500 1.60522128750000 5.04867158125000 
 N -2.03372315937500 4.75559828750000 4.46058958125000 
 N -4.25442715937500 0.720635287500000 3.92755458125000 
 N -4.37461015937500 4.51359128750000 3.45964458125000 
 N -4.93273015937500 0.578859287500000 7.70217858125000 
 N -4.61173015937500 4.59710728750000 7.36854358125000 
 S -5.60590415937500 0.145955287500001 6.21972858125000 
 S -5.56296215937500 4.39494928750000 6.04947158125000 
 S -2.75499315937500 1.27357028750000 3.51045258125000 
 S -2.79061015937500 4.68845828750000 3.00929358125000 
 S -3.36397515937500 1.14956928750000 7.58017758125000 
 S -2.95036615937500 4.77685928750000 7.11503658125000 
