16

 C -3.16440215937500 1.50898663437500 5.63385427500000 
 C -3.06308515937500 5.21099863437500 5.51366327500000 
 C -4.40949715937500 1.23369063437500 4.84806927500000 
 C -4.34105415937500 4.94366663437500 4.84020727500000 
 N -2.14085615937500 1.93538163437500 4.88768327500000 
 N -2.07644015937500 5.39626563437500 4.67915627500000 
 N -4.20825715937500 1.35562563437500 3.53885727500000 
 N -4.21973315937500 4.70337963437500 3.53041127500000 
 N -5.05912715937500 0.963325634374998 7.30633327500000 
 N -4.81677915937500 5.30715963437500 7.41984227500000 
 S -5.81921915937500 0.789348634374998 5.82643227500000 
 S -5.57044115937500 4.72300463437500 5.99992427500000 
 S -2.60320115937500 1.74266063437500 3.32440027500000 
 S -2.63463115937500 5.02858163437500 3.15748927500000 
 S -3.39051315937500 1.15746063437500 7.29166827500000 
 S -3.10961715937500 5.43535463437500 7.24113627500000 
