16

 C -3.05758495312500 1.24138783750000 5.54177938750000 
 C -3.11947195312500 5.18537683750000 5.20885838750000 
 C -4.21121295312500 0.926843837500001 4.77314138750000 
 C -4.37650695312500 4.82535483750000 4.58688938750000 
 N -1.91545995312500 1.35939183750000 4.86232238750000 
 N -2.17387195312500 5.54608683750000 4.34195638750000 
 N -3.96945595312500 0.676103837500000 3.48999638750000 
 N -4.23338695312500 4.57301483750000 3.30952938750000 
 N -4.86932295312500 1.23598383750000 7.29929438750000 
 N -4.79435395312500 4.88543983750000 7.17065238750000 
 S -5.56946495312500 0.897218837500001 5.80811938750000 
 S -5.65227895312500 4.70749183750000 5.79431438750000 
 S -2.38527595312500 0.969140837500000 3.26506338750000 
 S -2.69395795312500 5.07302883750000 2.84927738750000 
 S -3.24387095312500 1.58387383750000 7.24247138750000 
 S -3.20846395312500 5.42510883750000 6.98119138750000 
