16

 C -3.36017974375000 1.44436711875000 5.52395823750000 
 C -3.41824574375000 5.19244811875000 5.11036923750000 
 C -4.62817774375000 0.929602118750001 4.93017323750000 
 C -4.52560474375000 4.44750611875000 4.56748223750000 
 N -2.36258074375000 1.63084611875000 4.66453323750000 
 N -2.36101274375000 5.38935111875000 4.32227623750000 
 N -4.47878074375000 0.628297118750002 3.65387923750000 
 N -4.35995274375000 4.26887111875000 3.27120323750000 
 N -4.96592374375000 1.19569511875000 7.42895023750000 
 N -5.11026774375000 4.74268911875000 7.04582423750000 
 S -5.91559974375000 0.772605118750002 6.08046323750000 
 S -5.74464574375000 3.96801111875000 5.68403523750000 
 S -2.95485174375000 1.05416811875000 3.24397123750000 
 S -2.80199974375000 4.71103111875000 2.89573723750000 
 S -3.38499574375000 1.67775211875000 7.21613123750000 
 S -3.53700374375000 5.33495411875000 6.83890323750000 
