16

 C -3.15308716562500 1.46548013437500 5.34621485000000 
 C -3.06451316562500 4.90039813437500 5.55967085000000 
 C -4.26787716562500 0.620869134374999 4.75954385000000 
 C -4.36191316562500 4.68636813437500 5.00485885000000 
 N -2.18697616562500 1.64547413437500 4.48365985000000 
 N -2.09502216562500 4.90560113437500 4.64408185000000 
 N -4.10617916562500 0.278410134374998 3.50131585000000 
 N -4.43170916562500 4.59626513437500 3.68124585000000 
 N -4.90993216562500 1.10078413437500 7.15424585000000 
 N -4.67841616562500 4.86522113437500 7.52196085000000 
 S -5.52316016562500 0.260815134374998 5.83504885000000 
 S -5.57587816562500 4.43742413437500 6.19854685000000 
 S -2.73636616562500 1.00496013437500 3.01115085000000 
 S -2.85371416562500 4.77049713437500 3.15651985000000 
 S -3.35145816562500 1.71356513437500 7.00197785000000 
 S -3.07852216562500 5.14459313437500 7.28030985000000 
