16

 C -3.28605999375000 1.32847057500000 5.36435260625000 
 C -3.22056099375000 5.43655757500000 5.61902060625000 
 C -4.41980299375000 0.633608575000004 4.81826660625000 
 C -4.39649099375000 4.79045057500000 5.02021160625000 
 N -2.18067799375000 1.29533457500000 4.62312760625000 
 N -2.16870899375000 5.53378857500000 4.84212260625000 
 N -4.19439999375000 0.138004575000004 3.61055860625000 
 N -4.20702699375000 4.46418857500000 3.78038360625000 
 N -5.04618899375000 1.59144057500000 7.10566960625000 
 N -4.99678299375000 5.19265957500000 7.46521160625000 
 S -5.71675099375000 0.539320575000004 6.01010360625000 
 S -5.73255699375000 4.48851857500000 6.13766060625000 
 S -2.59906399375000 0.529153575000004 3.19587060625000 
 S -2.67698799375000 4.82003557500000 3.37684060625000 
 S -3.49149199375000 2.02143157500000 6.88937160625000 
 S -3.39155699375000 5.72029357500000 7.36984160625000 
