16

 C -3.14048417812500 1.31335529375000 5.80894237500000 
 C -3.05709017812500 4.69847629375000 5.41966137500000 
 C -4.35768917812500 0.729134293750000 5.09414637500000 
 C -4.40099217812500 4.61440229375000 4.91525637500000 
 N -2.18437617812500 1.61912929375000 4.95629337500000 
 N -2.11124017812500 4.82224329375000 4.50911437500000 
 N -4.26533317812500 0.754236293750000 3.77687437500000 
 N -4.42219417812500 4.51584929375000 3.60567337500000 
 N -4.85509417812500 0.721663293749999 7.65150937500000 
 N -4.62387217812500 4.67799029375000 7.47990337500000 
 S -5.54366517812500 0.113759293749999 6.24470837500000 
 S -5.63530417812500 4.29608629375000 6.16224637500000 
 S -2.74998317812500 1.30706629375000 3.40598437500000 
 S -2.85956217812500 4.67339729375000 3.01357237500000 
 S -3.21875617812500 1.05212729375000 7.59871137500000 
 S -3.00656217812500 4.80420729375000 7.14903237500000 
