16

 C -3.21407194375000 1.43039830625000 5.65839818437500 
 C -3.35361294375000 5.12320030625000 5.38965818437500 
 C -4.38031294375000 0.810022306249999 4.93969718437500 
 C -4.55611494375000 4.69497930625000 4.75654318437500 
 N -2.16380594375000 1.68187830625000 4.84416318437500 
 N -2.30505194375000 5.42006530625000 4.61262918437500 
 N -4.17966594375000 0.768326306249999 3.61258018437500 
 N -4.43119794375000 4.80024030625000 3.44864418437500 
 N -5.06352494375000 1.19548330625000 7.38443618437500 
 N -5.10475394375000 4.86101530625000 7.30378318437500 
 S -5.71136794375000 0.599043306249999 5.98715718437500 
 S -5.89237794375000 4.41369930625000 5.89436518437500 
 S -2.63550894375000 1.18164330625000 3.36282218437500 
 S -2.85618394375000 5.17599130625000 3.08563518437500 
 S -3.47466294375000 1.59995130625000 7.36777918437500 
 S -3.50091694375000 5.27353530625000 7.08684618437500 
