16

 C -3.00498434375000 1.40747848125000 5.54404196875000 
 C -3.32080134375000 5.13379548125000 5.17925496875000 
 C -4.19354334375000 1.05596748125000 4.78127296875000 
 C -4.43023034375000 4.40046848125000 4.58751896875000 
 N -1.86255834375000 1.58071048125000 4.80968996875000 
 N -2.21426334375000 5.25009648125000 4.44780096875000 
 N -3.97983834375000 0.850706481250001 3.46512996875000 
 N -4.15505034375000 4.00878648125000 3.35057296875000 
 N -5.02494134375000 1.09257448125000 7.28571296875000 
 N -5.24403634375000 5.09161548125000 6.86304696875000 
 S -5.61362134375000 0.798476481250002 5.77660596875000 
 S -5.75332734375000 4.10027948125000 5.67238396875000 
 S -2.40169434375000 1.13227348125000 3.25553196875000 
 S -2.56182934375000 4.43130948125000 3.05105196875000 
 S -3.45985934375000 1.69049948125000 7.27076996875000 
 S -3.77679434375000 5.86251048125000 6.69120596875000 
