16

 C -3.39815947812500 1.40760563750000 5.52272842812500 
 C -2.95269147812500 5.12614963750000 5.81841742812500 
 C -4.60823047812500 1.12146063750000 4.82234842812500 
 C -4.31911747812500 4.94047363750000 5.24918342812500 
 N -2.33261247812500 1.60884963750000 4.78407442812500 
 N -2.01114347812500 5.22179963750000 4.86720442812500 
 N -4.53030447812500 1.23522363750000 3.51203842812500 
 N -4.36994347812500 4.86418163750000 3.92695542812500 
 N -5.14065647812500 1.28349963750000 7.35736842812500 
 N -4.73486547812500 5.20231563750000 7.71025842812500 
 S -5.92000347812500 0.802137637500004 5.98078542812500 
 S -5.62058647812500 4.99629263750000 6.37857042812500 
 S -2.88585347812500 1.57417663750000 3.18938742812500 
 S -2.85980147812500 5.01385063750000 3.36021942812500 
 S -3.54495547812500 1.72304563750000 7.16266842812500 
 S -3.04215147812500 5.33880063750000 7.59892842812500 
