16

 C -2.95982143750000 1.60129455312500 5.39197948750000 
 C -3.22093643750000 5.19306155312500 5.59868448750000 
 C -4.23051243750000 1.20022755312500 4.82905448750000 
 C -4.41936143750000 4.77017055312500 4.92761748750000 
 N -1.97145043750000 1.68545355312500 4.47122848750000 
 N -2.19106643750000 5.24031755312500 4.72783748750000 
 N -4.25032243750000 1.06762255312500 3.48880748750000 
 N -4.39426643750000 4.75339155312500 3.59631148750000 
 N -4.63401043750000 1.51189655312500 7.44553548750000 
 N -4.98899143750000 4.61735655312500 7.50151648750000 
 S -5.47875843750000 1.13367655312500 6.04562048750000 
 S -5.71012843750000 4.40494655312500 5.97862548750000 
 S -2.64803843750000 1.20901755312500 3.00703648750000 
 S -2.78617543750000 4.98449155312500 3.24132548750000 
 S -3.03221443750000 1.96851555312500 7.16790448750000 
 S -3.40867943750000 5.16860355312500 7.37883148750000 
