16

 C -3.06334823750000 1.71765984687500 5.47598538750000 
 C -3.56605823750000 5.22098284687500 5.48877938750000 
 C -4.14808623750000 1.12230184687500 4.76907538750000 
 C -4.67831923750000 4.47402184687500 4.96129238750000 
 N -2.01089723750000 2.05816684687500 4.70146738750000 
 N -2.57553223750000 5.53872184687500 4.63483238750000 
 N -3.92483323750000 0.863565846875002 3.46304938750000 
 N -4.53706823750000 4.24761684687500 3.66092238750000 
 N -4.69445223750000 0.879695846875002 7.28022138750000 
 N -5.20991223750000 4.62969384687500 7.46351738750000 
 S -5.45934323750000 0.606497846875002 5.81502838750000 
 S -5.94770023750000 4.03732084687500 6.09502238750000 
 S -2.41979523750000 1.51099384687500 3.16423638750000 
 S -3.07423623750000 4.93007284687500 3.17335438750000 
 S -3.34053623750000 1.85636484687500 7.19315538750000 
 S -3.83645623750000 5.50227784687500 7.22799538750000 
