16

 C -3.19421631250000 0.919887890625001 5.71887615937500 
 C -3.27134731250000 5.19293389062500 5.65555715937500 
 C -4.41011531250000 0.715333890625001 4.98142015937500 
 C -4.38913931250000 4.53934689062500 4.96822615937500 
 N -2.15686231250000 1.12938989062500 4.93870115937500 
 N -2.32543331250000 5.56852189062500 4.81185315937500 
 N -4.27328531250000 0.658554890625001 3.66537415937500 
 N -4.19036631250000 4.37308789062500 3.66798815937500 
 N -4.93417631250000 0.857132890625001 7.52208715937500 
 N -5.04936731250000 4.74800289062500 7.37177215937500 
 S -5.75536131250000 0.590930890625001 6.06197715937500 
 S -5.59885931250000 3.88580089062500 6.05926215937500 
 S -2.62175731250000 0.935994890625001 3.39235815937500 
 S -2.76851731250000 5.10971689062500 3.27788715937500 
 S -3.25872231250000 1.16045589062500 7.41832115937500 
 S -3.45982231250000 5.28643489062500 7.35975415937500 
