16

 C -3.51439606875000 1.33576401250000 5.82140143437500 
 C -3.31094706875000 5.17374701250000 5.35429343437500 
 C -4.59976406875000 0.797855012500004 4.95989343437500 
 C -4.51602206875000 4.66545201250000 4.77128143437500 
 N -2.38014106875000 1.61005201250000 5.18960643437500 
 N -2.32228506875000 5.37467801250000 4.49285643437500 
 N -4.24345506875000 0.706281012500004 3.68977843437500 
 N -4.36297706875000 4.33476001250000 3.46596443437500 
 N -5.48012306875000 0.880935012500004 7.34606543437500 
 N -4.86602406875000 4.84087501250000 7.36797043437500 
 S -6.11297706875000 0.561686012500004 5.78811943437500 
 S -5.79819406875000 4.44192401250000 5.99971043437500 
 S -2.70278806875000 1.15869801250000 3.65925243437500 
 S -2.84778706875000 4.84550001250000 3.02776443437500 
 S -3.93773106875000 1.48322901250000 7.41954443437500 
 S -3.29009506875000 5.34671801250000 7.03950343437500 
