16

 C -3.16272994375000 1.37232902812500 5.48000272812500 
 C -3.16553894375000 5.20480502812500 5.50598372812500 
 C -4.30405594375000 0.805382028125003 4.86087172812500 
 C -4.27605694375000 4.59242002812500 4.84881072812500 
 N -2.11833694375000 1.67645002812500 4.68741972812500 
 N -2.06044194375000 5.39803102812500 4.80408872812500 
 N -4.10439894375000 0.619705028125002 3.54653472812500 
 N -4.00256094375000 4.46254702812500 3.54502972812500 
 N -4.95868294375000 0.879448028125003 7.30372472812500 
 N -5.16946094375000 5.12211002812500 7.14432872812500 
 S -5.63763494375000 0.373220028125003 5.81590672812500 
 S -5.64053994375000 4.21246102812500 5.82545372812500 
 S -2.67315794375000 1.29238602812500 3.20648872812500 
 S -2.44571094375000 4.89814302812500 3.27934572812500 
 S -3.40681994375000 1.50834602812500 7.19699072812500 
 S -3.60638294375000 5.58537602812500 7.18455672812500 
