16

 C -3.11583605000000 1.27384889687500 5.73058266562500 
 C -3.08108105000000 4.59235689687500 5.42170366562500 
 C -4.35543205000000 0.968373896874998 5.14569666562500 
 C -4.26799605000000 4.13516789687500 4.78155566562500 
 N -2.12461605000000 1.39693789687500 4.83587566562500 
 N -2.03873605000000 4.73073989687500 4.61377166562500 
 N -4.34627705000000 0.757701896874997 3.83299566562500 
 N -4.06597405000000 3.87502989687500 3.50383866562500 
 N -4.83573905000000 1.16917389687500 7.59754166562500 
 N -4.84485805000000 4.66154889687500 7.22772766562500 
 S -5.72762905000000 0.840307896874998 6.24721566562500 
 S -5.64761105000000 4.01750489687500 5.88884466562500 
 S -2.75013505000000 0.990051896874998 3.38737666562500 
 S -2.50156705000000 4.30233689687500 3.12336766562500 
 S -3.21839205000000 1.63840689687500 7.45049966562500 
 S -3.20117505000000 4.94382489687500 7.06367666562500 
