16

 C -2.88901392500000 1.80678999687500 5.62360312187500 
 C -3.23602992500000 5.30516299687500 5.69680912187500 
 C -4.15761192500000 1.61388599687500 4.98420112187500 
 C -4.46589592500000 4.84795199687500 5.05123812187500 
 N -1.82049992500000 1.87827299687500 4.79905112187500 
 N -2.19732692500000 5.31198499687500 4.86031412187500 
 N -4.14621792500000 1.62970399687500 3.63407312187500 
 N -4.40777892500000 4.72987199687500 3.71214312187500 
 N -4.52216992500000 1.47543399687500 7.65069612187500 
 N -4.84446192500000 5.20611499687500 7.65023512187500 
 S -5.42966592500000 1.46880599687500 6.24251712187500 
 S -5.68613492500000 4.71593999687500 6.30501912187500 
 S -2.52847892500000 1.59750099687500 3.30084512187500 
 S -2.74324892500000 4.93650799687500 3.34720912187500 
 S -2.92513192500000 1.92397499687500 7.34900912187500 
 S -3.19274892500000 5.55699399687500 7.39588512187500 
