16

 C -3.01189443125000 1.34031769062500 5.75042514375000 
 C -3.15914543125000 5.09471969062500 5.54751614375000 
 C -4.30557743125000 0.916686690625001 5.16445514375000 
 C -4.42381543125000 4.67084569062500 4.95814314375000 
 N -1.96157743125000 1.12925269062500 4.95823714375000 
 N -2.17944943125000 5.13593669062500 4.68158214375000 
 N -4.24813543125000 0.559819690625000 3.86890314375000 
 N -4.39783243125000 4.53615269062500 3.64737214375000 
 N -4.73269643125000 1.48526469062500 7.69929514375000 
 N -4.82810243125000 4.97633869062500 7.44089814375000 
 S -5.59907443125000 1.00855669062500 6.31040914375000 
 S -5.70491243125000 4.51750569062500 6.16484914375000 
 S -2.64062843125000 0.628770690625001 3.46785214375000 
 S -2.80689043125000 4.71144069062500 3.19436014375000 
 S -3.11217643125000 1.83421369062500 7.43143914375000 
 S -3.22617843125000 5.35858269062500 7.22206814375000 
