16

 C -3.10727051875000 1.52038497500000 5.62577407500000 
 C -3.10728351875000 4.87713597500000 5.51663507500000 
 C -4.43885851875000 1.29031597500000 5.11796207500000 
 C -4.39086551875000 4.63397697500000 4.88871907500000 
 N -2.20386751875000 1.70942697500000 4.66608407500000 
 N -2.12175051875000 5.15010997500000 4.65220307500000 
 N -4.50490951875000 1.24333997500000 3.79109407500000 
 N -4.37985951875000 4.59973097500000 3.57369707500000 
 N -4.74895851875000 1.64710697500000 7.61879807500000 
 N -4.96461651875000 4.73426897500000 7.31172507500000 
 S -5.67874951875000 1.35212497500000 6.28963707500000 
 S -5.79743251875000 4.55966097500000 5.89802207500000 
 S -2.89416251875000 1.50859297500000 3.20236107500000 
 S -2.78070851875000 4.91087097500000 3.11111307500000 
 S -3.10648251875000 1.74084897500000 7.34627807500000 
 S -3.32322951875000 4.94699797500000 7.24584107500000 
