16

 C -3.02324262812500 1.01617358750000 5.50533135000000 
 C -3.04514962812500 5.05879658750000 5.55345235000000 
 C -4.20302862812500 0.597504587500003 4.77066335000000 
 C -4.29222162812500 4.82404558750000 4.90529535000000 
 N -1.94270162812500 1.09370658750000 4.72236735000000 
 N -2.01551162812500 4.95624258750000 4.73942035000000 
 N -4.00591962812500 0.425136587500003 3.47775635000000 
 N -4.22606062812500 4.64745958750000 3.62606835000000 
 N -5.04624862812500 1.12239958750000 7.11132035000000 
 N -4.84020862812500 5.15235058750000 7.35563335000000 
 S -5.62388862812500 0.472079587500003 5.74022035000000 
 S -5.65620962812500 4.79905758750000 5.96607935000000 
 S -2.43332262812500 0.724524587500003 3.17541135000000 
 S -2.62978662812500 4.70932858750000 3.20985635000000 
 S -3.40640762812500 1.35532658750000 7.19721035000000 
 S -3.23124462812500 5.38765358750000 7.21807135000000 
