16

 C -3.23377027812500 0.970860003124999 5.40152082187500 
 C -3.12861927812500 4.57173800312500 5.55904582187500 
 C -4.42353427812500 0.536075003124998 4.78981382187500 
 C -4.41929627812500 4.72111800312500 4.92901282187500 
 N -2.25191527812500 1.33328300312500 4.62030882187500 
 N -2.14342727812500 4.39666300312500 4.67255082187500 
 N -4.26574627812500 0.534452003124999 3.46588982187500 
 N -4.41587527812500 4.73899100312500 3.62122182187500 
 N -4.83211027812500 0.526068003124998 7.35275982187500 
 N -4.86751327812500 4.81744600312500 7.49504682187500 
 S -5.67206027812500 0.199773003124998 5.94785882187500 
 S -5.71483527812500 4.73962400312500 6.05313882187500 
 S -2.83581427812500 1.19733600312500 3.08336782187500 
 S -2.90698627812500 4.46260500312500 3.12544982187500 
 S -3.19385627812500 0.935932003124998 7.11489782187500 
 S -3.20705927812500 4.85749000312500 7.27756482187500 
