16

 C -3.12016964687500 1.31584531250000 5.46340862187500 
 C -3.05690064687500 5.15023831250000 5.66500662187500 
 C -4.24660264687500 0.651108312500002 4.79343862187500 
 C -4.15365164687500 4.54204831250000 4.86269762187500 
 N -2.14371964687500 1.72939431250000 4.74620462187500 
 N -1.97455664687500 5.31213931250000 4.87958162187500 
 N -4.13491264687500 0.654235312500003 3.47780262187500 
 N -4.03534964687500 4.36171531250000 3.57378462187500 
 N -4.87145864687500 0.914577312500002 7.29707562187500 
 N -5.25240864687500 5.10506231250000 7.14997162187500 
 S -5.61089564687500 0.357923312500002 5.93138662187500 
 S -5.61418564687500 4.26161731250000 5.76510262187500 
 S -2.54983164687500 1.35607031250000 3.16009362187500 
 S -2.44930464687500 4.86581031250000 3.30892462187500 
 S -3.32998064687500 1.57484831250000 7.10727562187500 
 S -3.55779964687500 5.60561231250000 7.26417562187500 
