16

 C -3.11838293437500 1.34511113125000 5.43125268437500 
 C -2.89370593437500 5.19217413125000 5.87510568437500 
 C -4.27188293437500 0.860078131250001 4.79255168437500 
 C -4.05100093437500 4.68307513125000 5.14953068437500 
 N -2.08666193437500 1.75478313125000 4.66668068437500 
 N -1.83677793437500 5.40281313125000 5.10777468437500 
 N -4.25817493437500 0.928189131250001 3.44711268437500 
 N -3.92151693437500 4.65504513125000 3.82793968437500 
 N -4.89716193437500 0.761267131250000 7.36150268437500 
 N -4.75643493437500 4.95808713125000 7.60922368437500 
 S -5.64384893437500 0.607998131250000 5.88293268437500 
 S -5.41523093437500 4.50443513125000 6.15536868437500 
 S -2.71480493437500 1.47407013125000 3.06368368437500 
 S -2.31127993437500 5.03532813125000 3.49796368437500 
 S -3.31894493437500 1.23120513125000 7.24061168437500 
 S -3.14740393437500 5.43156113125000 7.64005668437500 
