16

 C -3.11498803125000 1.71331594062500 5.54613081875000 
 C -3.15473403125000 5.01704794062500 5.50750481875000 
 C -4.45562303125000 1.55960494062500 5.02220781875000 
 C -4.39808903125000 4.66932294062500 4.87280981875000 
 N -2.17105203125000 1.73549994062500 4.61800981875000 
 N -2.13289903125000 5.36174694062500 4.70309081875000 
 N -4.53678503125000 1.45995694062500 3.69600781875000 
 N -4.26776203125000 4.63257294062500 3.54487081875000 
 N -4.72394903125000 1.59806994062500 7.53841581875000 
 N -4.77618803125000 4.50867894062500 7.43648381875000 
 S -5.69124003125000 1.50770494062500 6.21144581875000 
 S -5.70764003125000 4.36970894062500 6.05998881875000 
 S -2.96540103125000 1.61416494062500 3.19758481875000 
 S -2.68657903125000 5.11616594062500 3.17094581875000 
 S -3.08103603125000 1.61130194062500 7.28261381875000 
 S -3.16991603125000 4.84496794062500 7.24281581875000 
