16

 C -3.36326164375000 1.25356801250000 5.42522257812500 
 C -3.17390464375000 5.10721101250000 5.00777157812500 
 C -4.43751564375000 0.502022012499998 4.73754657812500 
 C -4.27452964375000 4.45207101250000 4.34237657812500 
 N -2.38890964375000 1.72365601250000 4.63138757812500 
 N -2.19828864375000 5.52930401250000 4.18825957812500 
 N -4.22386764375000 0.329486012499998 3.40697257812500 
 N -4.13312064375000 4.38144001250000 2.99735657812500 
 N -5.13273364375000 0.835364012499998 7.26042857812500 
 N -4.77158464375000 4.23468001250000 6.88543157812500 
 S -5.74640264375000 0.186847012499998 5.83672157812500 
 S -5.53514764375000 3.84806301250000 5.40626157812500 
 S -2.80219164375000 1.17232901250000 3.12796257812500 
 S -2.66834564375000 5.10368901250000 2.68057857812500 
 S -3.59634364375000 1.48655501250000 7.13789757812500 
 S -3.43080764375000 5.23614301250000 6.78851957812500 
