16

 C -3.63550216875000 1.11088739375000 5.66845112500000 
 C -2.98517116875000 4.99569139375000 5.36679912500000 
 C -4.81080916875000 0.572702393749997 4.94474012500000 
 C -4.21310716875000 4.48996239375000 4.82880812500000 
 N -2.69314616875000 1.57627039375000 4.80153212500000 
 N -2.05272716875000 5.12656939375000 4.42698012500000 
 N -4.65285816875000 0.449038393749997 3.61819012500000 
 N -4.17400516875000 4.12701739375000 3.56421012500000 
 N -5.54106016875000 0.606261393749997 7.40835712500000 
 N -4.72322916875000 4.94764639375000 7.29138512500000 
 S -6.20682716875000 0.152724393749997 5.95800812500000 
 S -5.52710416875000 4.27762139375000 5.99229512500000 
 S -3.18679616875000 1.04983539375000 3.30093612500000 
 S -2.66494916875000 4.51292639375000 3.00066412500000 
 S -3.95114116875000 1.17294739375000 7.38659612500000 
 S -3.16814116875000 5.44000839375000 7.08051912500000 
