16

 C -3.15823530312500 1.19376832500000 5.70602888125000 
 C -3.13185830312500 5.07035832500000 5.54739888125000 
 C -4.42162330312500 0.840035325000000 5.17886888125000 
 C -4.36045030312500 4.60897732500000 4.99999788125000 
 N -2.09561130312500 1.18150032500000 4.89508788125000 
 N -2.12746030312500 5.29644332500000 4.72214488125000 
 N -4.37947530312500 0.590839325000000 3.85759188125000 
 N -4.29943530312500 4.49254632500000 3.69488388125000 
 N -4.88557030312500 1.52926732500000 7.70768488125000 
 N -4.91762530312500 5.04348032500000 7.45342388125000 
 S -5.81100730312500 1.17813732500000 6.28721088125000 
 S -5.68282330312500 4.55891432500000 6.12385188125000 
 S -2.80738830312500 0.872031325000000 3.36510488125000 
 S -2.83199430312500 5.06560232500000 3.19565888125000 
 S -3.22232430312500 1.61547632500000 7.44672388125000 
 S -3.35820830312500 5.45187732500000 7.24144988125000 
