16

 C -3.41030206250000 1.29455600312500 5.42949009687500 
 C -3.17754306250000 5.07791300312500 5.00360009687500 
 C -4.39809106250000 0.495531003125001 4.79264409687500 
 C -4.31521906250000 4.46407000312500 4.29034209687500 
 N -2.48578806250000 1.78135300312500 4.62834609687500 
 N -2.15413906250000 5.41015100312500 4.23357709687500 
 N -4.19208306250000 0.362079003125001 3.50629409687500 
 N -4.12647106250000 4.41894300312500 2.96398709687500 
 N -5.12960206250000 0.810754003125001 7.22276109687500 
 N -4.79446806250000 4.26568300312500 6.86676309687500 
 S -5.73232306250000 0.188795003125001 5.82443609687500 
 S -5.56855506250000 3.82611500312500 5.43226509687500 
 S -2.82626306250000 1.15212000312500 3.10620009687500 
 S -2.65679606250000 5.07193700312500 2.65559109687500 
 S -3.59093906250000 1.47998500312500 7.13031909687500 
 S -3.39457206250000 5.24431900312500 6.73198709687500 
