16

 C -2.99199256250000 1.64850038750000 5.42435253750000 
 C -3.11153356250000 5.17821638750000 5.64832553750000 
 C -4.31274656250000 1.36936238750000 4.93041653750000 
 C -4.27462356250000 4.71721038750000 4.93936853750000 
 N -2.05203456250000 1.90488038750000 4.53461753750000 
 N -2.06923556250000 5.54177238750000 4.92079153750000 
 N -4.25157956250000 1.17134938750000 3.61157553750000 
 N -4.01249156250000 4.59897238750000 3.62854053750000 
 N -4.47556256250000 1.24822138750000 7.40453853750000 
 N -4.84131356250000 4.77690138750000 7.44503053750000 
 S -5.55146656250000 1.21577438750000 6.11144553750000 
 S -5.62628356250000 4.50236138750000 6.02500253750000 
 S -2.66395956250000 1.33830738750000 3.12908353750000 
 S -2.47444856250000 5.09409538750000 3.39030853750000 
 S -2.90531556250000 1.64427638750000 7.14294453750000 
 S -3.26011756250000 5.33202938750000 7.35804753750000 
