16

 C -2.80246391562500 1.48059604687500 5.45993561875000 
 C -3.40822591562500 5.11902304687500 5.26386561875000 
 C -4.06441991562500 1.10167904687500 4.76012561875000 
 C -4.54123091562500 4.45982404687500 4.63194161875000 
 N -1.78375491562500 1.49032204687500 4.60191261875000 
 N -2.38328191562500 5.22343404687500 4.44637461875000 
 N -3.92081991562500 0.806162046874999 3.44019261875000 
 N -4.28896791562500 3.92326804687500 3.43543361875000 
 N -4.74273091562500 1.38909404687500 7.18961961875000 
 N -5.32358091562500 5.15188404687500 7.07037161875000 
 S -5.50267391562500 0.850401046875000 5.76387261875000 
 S -5.78613691562500 4.21883104687500 5.77219961875000 
 S -2.36483191562500 1.20430404687500 3.08375061875000 
 S -2.75268491562500 4.41853404687500 3.07570761875000 
 S -3.12992691562500 1.83634604687500 7.13747861875000 
 S -3.81433691562500 5.90732104687500 6.77959261875000 
