16

 C -3.49343560312500 1.26829034062500 5.77666919375000 
 C -3.26624960312500 5.16281634062500 5.34620519375000 
 C -4.54697160312500 0.842007340625003 4.95183519375000 
 C -4.52319460312500 4.66632234062500 4.79249519375000 
 N -2.36337560312500 1.64535634062500 5.15875119375000 
 N -2.28347760312500 5.45746534062500 4.49876419375000 
 N -4.23243260312500 0.702833340625004 3.66116819375000 
 N -4.41329060312500 4.48278334062500 3.49909619375000 
 N -5.47380060312500 0.932691340625004 7.39205119375000 
 N -4.94930060312500 4.85412934062500 7.32465219375000 
 S -6.02021460312500 0.591786340625004 5.86479519375000 
 S -5.81219660312500 4.43942034062500 5.99853519375000 
 S -2.58829760312500 1.15698534062500 3.57331019375000 
 S -2.87897060312500 4.87794234062500 3.01602219375000 
 S -3.91435960312500 1.53235134062500 7.46007319375000 
 S -3.36221860312500 5.31418234062500 7.07574919375000 
