16

 C -2.95217199687500 1.60875441875000 5.38518904062500 
 C -3.22115499687500 5.18887841875000 5.60397504062500 
 C -4.20838499687500 1.19901741875000 4.82014504062500 
 C -4.42189999687500 4.75822941875000 4.92122304062500 
 N -1.95612599687500 1.69190441875000 4.47715704062500 
 N -2.19745999687500 5.23603641875000 4.73346004062500 
 N -4.26053099687500 1.08358041875000 3.48025704062500 
 N -4.39942799687500 4.75212341875000 3.59719004062500 
 N -4.63863599687500 1.53654741875000 7.44578904062500 
 N -4.98174099687500 4.61511241875000 7.51006704062500 
 S -5.47005099687500 1.14145541875000 6.05627404062500 
 S -5.70998399687500 4.41238041875000 5.97872904062500 
 S -2.64907099687500 1.21653541875000 3.00525904062500 
 S -2.78363999687500 4.98395641875000 3.24161004062500 
 S -3.03441199687500 1.97355041875000 7.16502604062500 
 S -3.40694199687500 5.17659141875000 7.38324904062500 
