16

 C -3.11792011562500 1.07977364999999 5.59966612812500 
 C -3.44442611562500 5.01080364999999 5.17647212812500 
 C -4.35620511562500 0.681791649999995 5.00450612812500 
 C -4.54518811562500 4.22290264999999 4.59578012812500 
 N -2.06606511562500 1.21615464999999 4.72458012812500 
 N -2.44325111562500 5.21997564999999 4.31921312812500 
 N -4.30518911562500 0.575210649999994 3.66806912812500 
 N -4.40753611562500 3.98201464999999 3.31313612812500 
 N -4.84359411562500 0.774037649999995 7.51439212812500 
 N -5.23616911562500 4.76319265000000 6.97214312812500 
 S -5.71973811562500 0.565414649999995 6.13092812812500 
 S -5.84232611562500 3.98299365000000 5.67585712812500 
 S -2.77993811562500 1.11791064999999 3.17685712812500 
 S -2.95155911562500 4.57009365000000 2.82788612812500 
 S -3.22459311562500 0.960269649999995 7.32168312812500 
 S -3.63407111562500 5.22844165000000 6.93530212812500 
