16

 C -3.30810612187500 1.52923853125001 5.56060048750000 
 C -3.00142712187500 5.35279653125001 5.92001648750000 
 C -4.33468412187500 0.848591531250009 4.83455148750000 
 C -4.14969912187500 4.74609753125001 5.34346248750000 
 N -2.36988312187500 2.10236853125001 4.82145148750000 
 N -2.10187712187500 5.60400553125001 4.96003348750000 
 N -4.08892712187500 0.682039531250010 3.54627448750000 
 N -4.16663912187500 4.52424053125001 4.08063948750000 
 N -5.00624112187500 1.11047853125001 7.37646548750000 
 N -4.74118112187500 5.08922053125001 7.89855248750000 
 S -5.67114012187500 0.524064531250009 6.01365348750000 
 S -5.43852712187500 4.59214853125001 6.38801848750000 
 S -2.58989012187500 1.56787453125001 3.27034948750000 
 S -2.78274512187500 5.12528953125001 3.49091648750000 
 S -3.47274312187500 1.72042353125001 7.22425648750000 
 S -3.13680912187500 5.45532053125001 7.66819948750000 
