16

 C -3.10806383437500 1.46452209375000 5.36509879062500 
 C -3.42403183437500 5.25969509375000 5.25865379062500 
 C -4.28693283437500 0.797364093750002 4.89577479062500 
 C -4.44428983437500 4.44402009375000 4.64764079062500 
 N -2.16681583437500 1.71862609375000 4.44724779062500 
 N -2.45564183437500 5.65961009375000 4.45878179062500 
 N -4.24718783437500 0.350573093750002 3.64739179062500 
 N -4.20440683437500 4.10650109375000 3.37480479062500 
 N -4.77801183437500 1.29714709375000 7.43777179062500 
 N -5.14191783437500 4.92777809375000 7.04469379062500 
 S -5.54718783437500 0.565229093750003 6.14704179062500 
 S -5.71235183437500 4.10177609375000 5.71828679062500 
 S -2.82795783437500 0.992729093750002 3.04877579062500 
 S -2.73470683437500 4.96354809375000 2.97939879062500 
 S -3.22779983437500 1.83187609375000 7.19824079062500 
 S -3.66356183437500 5.60318709375000 6.93115879062500 
