16

 C -2.85699070937501 1.19127706562499 5.58883150937500 
 C -3.03600370937501 5.16497706562499 5.50528750937500 
 C -4.10403070937501 0.981075065624995 4.86946750937500 
 C -4.25561870937501 4.84347806562499 4.82005250937500 
 N -1.75806670937501 1.13306706562499 4.76570750937500 
 N -1.87938870937501 5.22677406562500 4.79685550937500 
 N -4.00068070937501 0.816987065624994 3.56191050937500 
 N -4.06261270937501 4.67875406562499 3.51848350937500 
 N -4.98838170937501 1.32068606562499 7.25919050937500 
 N -4.78691370937501 5.28856606562499 7.35536650937500 
 S -5.54700070937501 0.839779065624994 5.74181350937500 
 S -5.61313070937501 4.84758706562500 6.05877350937500 
 S -2.41777370937501 0.984850065624994 3.24680550937500 
 S -2.38940270937501 4.90474006562499 3.30577550937500 
 S -3.30193670937501 1.60056406562499 7.29303850937500 
 S -3.17197970937501 5.45702806562499 7.17222750937500 
