16

 C -2.96025690625000 1.91694119375000 5.65312145625000 
 C -3.22438390625000 5.59596719375000 5.30769045625000 
 C -4.19586090625000 1.62567719375000 4.98905245625000 
 C -4.40421590625000 4.94350419375000 4.70677145625000 
 N -1.93438790625000 1.93732319375000 4.83795945625000 
 N -2.26533190625000 5.89634419375000 4.42373145625000 
 N -4.08078190625000 1.61413719375000 3.65213045625000 
 N -4.28050290625000 4.68335619375000 3.39916745625000 
 N -4.62721190625000 1.55802219375000 7.55379745625000 
 N -4.93337490625000 4.99694819375000 7.18437845625000 
 S -5.48913990625000 1.42255919375000 6.14887645625000 
 S -5.67343690625000 4.49772719375000 5.80650645625000 
 S -2.50100790625000 1.86484319375000 3.22830445625000 
 S -2.82154090625000 5.24353619375000 2.91501545625000 
 S -3.03084890625000 2.06047919375000 7.34632945625000 
 S -3.30546790625000 5.53103219375000 7.07512545625000 
