16

 C -3.26616006250000 1.67369665937500 5.76441146250000 
 C -3.14904206250000 5.32082565937500 5.86997646250000 
 C -4.41684006250000 1.14010265937500 5.06610446250000 
 C -4.32970106250000 4.80699165937500 5.21157446250000 
 N -2.20035206250000 1.81483965937500 5.00905546250000 
 N -2.06789406250000 5.45216265937500 5.05636246250000 
 N -4.22034806250000 0.954750659375004 3.76796546250000 
 N -4.20565206250000 4.51467665937500 3.89088646250000 
 N -5.06078306250000 1.19864465937500 7.65475446250000 
 N -4.73409706250000 4.87044965937500 7.70662346250000 
 S -5.72048106250000 0.719622659375005 6.16258146250000 
 S -5.51816306250000 4.37220665937500 6.39354946250000 
 S -2.64053506250000 1.34192065937500 3.49161746250000 
 S -2.62094506250000 4.96279865937500 3.58701546250000 
 S -3.54243306250000 1.89701465937500 7.46757346250000 
 S -3.29623606250000 5.58191765937500 7.55364046250000 
