16

 C -3.11028836875000 1.44606261875000 5.29299235625000 
 C -3.26309736875000 5.21921261875000 5.36109135625000 
 C -4.36817636875000 0.995808618749998 4.80337035625000 
 C -4.48060336875000 4.58367161875000 4.86369735625000 
 N -2.11535236875000 1.43655061875000 4.44811635625000 
 N -2.49729436875000 5.46224761875000 4.32667335625000 
 N -4.26993136875000 0.693317618749998 3.49918135625000 
 N -4.52785436875000 4.34826061875000 3.54627635625000 
 N -4.57749236875000 1.30135761875000 7.38088835625000 
 N -4.87998736875000 4.72676761875000 7.40752335625000 
 S -5.59865836875000 0.906564618749997 6.13270535625000 
 S -5.64715836875000 4.20839061875000 6.03521135625000 
 S -2.72583336875000 0.961124618749998 3.03155035625000 
 S -3.11547536875000 4.92062861875000 2.91020235625000 
 S -2.96438336875000 1.55280761875000 6.96419635625000 
 S -3.26956236875000 5.30346661875000 7.12222235625000 
