16

 C -2.67259750625000 1.64199044687500 5.33749902812500 
 C -3.38860350625000 5.09255144687500 5.62239302812500 
 C -3.76359150625000 0.885210446875000 4.80006602812500 
 C -4.46695550625000 4.45854244687500 4.89956502812500 
 N -1.84277950625000 2.04391344687500 4.41904902812500 
 N -2.36167050625000 5.38717244687500 4.83826802812500 
 N -3.79556550625000 0.750389446875001 3.50255902812500 
 N -4.40283750625000 4.53652544687500 3.58718002812500 
 N -4.18444550625000 1.04370444687500 7.30586902812500 
 N -5.01590450625000 4.39033844687500 7.41125802812500 
 S -4.99907250625000 0.565390446875000 5.93292502812500 
 S -5.79642350625000 4.03119044687500 5.95948002812500 
 S -2.45767050625000 1.52889644687500 2.94454902812500 
 S -2.87478550625000 5.07265944687500 3.27471002812500 
 S -2.81114850625000 1.94766644687500 7.09236302812500 
 S -3.54596950625000 5.07050244687500 7.28987802812500 
