16

 C -3.08984883750000 1.49861792187500 5.43930035625000 
 C -3.05808483750000 5.14996192187500 5.46812235625000 
 C -4.36617983750000 1.30965092187500 4.75410135625000 
 C -4.32740683750000 4.92111392187500 4.81901835625000 
 N -2.05850883750000 1.70261592187500 4.61720635625000 
 N -2.02977483750000 5.43070592187500 4.67589135625000 
 N -4.31961583750000 1.40913192187500 3.41038335625000 
 N -4.20130783750000 4.96016892187500 3.48795835625000 
 N -4.90955283750000 1.37388192187500 7.29218235625000 
 N -4.70798883750000 4.89521492187500 7.38259435625000 
 S -5.75265183750000 1.29569192187500 5.86256735625000 
 S -5.57862383750000 4.64555192187500 6.03490435625000 
 S -2.76914783750000 1.57136892187500 3.08043835625000 
 S -2.62225583750000 5.27534192187500 3.16375835625000 
 S -3.25303683750000 1.60278392187500 7.18607435625000 
 S -3.07533983750000 5.06561192187500 7.21115235625000 
