16

 C -3.26898951250000 1.37003116875000 5.53603991250000 
 C -3.29139851250000 5.06025216875000 5.44520191250000 
 C -4.55940951250000 1.07661816875000 4.88558191250000 
 C -4.53766751250000 4.64575416875000 4.83549291250000 
 N -2.21007851250000 1.53982416875000 4.68807791250000 
 N -2.28142251250000 5.31213116875000 4.61982091250000 
 N -4.45955851250000 0.904204168749998 3.53491191250000 
 N -4.43365651250000 4.50728616875000 3.52892291250000 
 N -5.01649251250000 1.14675416875000 7.49670691250000 
 N -4.97177651250000 4.81861416875000 7.36385291250000 
 S -5.82908451250000 0.761719168749998 6.08599991250000 
 S -5.76209851250000 4.42383216875000 5.94514491250000 
 S -2.86519651250000 1.17491316875000 3.18325491250000 
 S -2.88000851250000 4.92286916875000 3.09942091250000 
 S -3.39231751250000 1.45424616875000 7.28229791250000 
 S -3.35407151250000 5.13671316875000 7.21250891250000 
