16

 C -3.23624843437500 1.56984190000000 5.46715837500000 
 C -2.96957543437500 5.13646890000000 5.58532937500000 
 C -4.47436743437500 1.06663090000000 4.90534537500000 
 C -4.19576643437500 4.63554290000000 4.99714637500000 
 N -2.26737343437500 1.76828090000000 4.56429637500000 
 N -1.94457543437500 5.15682890000000 4.68265537500000 
 N -4.46289343437500 0.926754900000002 3.55119937500000 
 N -4.13238443437500 4.41752290000000 3.64597337500000 
 N -4.83890243437500 1.37034290000000 7.48718937500000 
 N -4.75031543437500 5.09260990000000 7.51456937500000 
 S -5.75756643437500 0.912211900000003 6.16822237500000 
 S -5.58787043437500 4.74571290000000 6.08993337500000 
 S -2.92872843437500 1.40998590000000 3.06097437500000 
 S -2.50747943437500 4.65259290000000 3.23207337500000 
 S -3.25007343437500 1.75243090000000 7.19912937500000 
 S -3.11648843437500 5.34924790000000 7.24172237500000 
