16

 C -2.93277760000000 1.47006915625000 5.31667088750000 
 C -3.07673560000000 5.08672415625000 5.51408088750000 
 C -4.18258360000000 1.02814515625000 4.68262688750000 
 C -4.22072460000000 4.54292215625000 4.83648188750000 
 N -1.93712460000000 1.62808315625000 4.45832988750000 
 N -2.07237660000000 5.35515115625000 4.67800688750000 
 N -4.17956560000000 0.948958156250004 3.37021388750000 
 N -4.18776160000000 4.52193315625000 3.50603688750000 
 N -4.61444160000000 1.17865815625000 7.20671788750000 
 N -4.94209060000000 4.74567915625000 7.29670288750000 
 S -5.50336760000000 0.990173156250004 5.81689488750000 
 S -5.55652660000000 4.17098415625000 5.85142688750000 
 S -2.62526460000000 1.31834215625000 2.93362188750000 
 S -2.64663860000000 4.94845815625000 3.09996888750000 
 S -3.01050560000000 1.62027715625000 7.04686188750000 
 S -3.37334660000000 5.25081115625000 7.23349488750000 
