16

 C -3.05911015937500 1.55297203125000 5.70951361875000 
 C -3.37429115937500 4.85455003125000 5.53207761875000 
 C -4.24064815937500 1.14960203125000 4.98329361875000 
 C -4.51943415937500 4.44161103125000 4.75170361875000 
 N -1.93983315937500 1.68771303125000 4.93683261875000 
 N -2.20498215937500 4.99537603125000 4.95995261875000 
 N -4.10062215937500 1.00031403125000 3.65614361875000 
 N -4.18140715937500 4.25140503125000 3.45366361875000 
 N -5.07175615937500 1.08381103125000 7.38735761875000 
 N -5.21940315937500 4.73142303125000 7.29173361875000 
 S -5.65322715937500 0.977188031250002 5.80712261875000 
 S -5.90396115937500 4.25431503125000 5.78464061875000 
 S -2.45898315937500 1.25162103125000 3.34543261875000 
 S -2.48650215937500 4.61981603125000 3.38253561875000 
 S -3.46703015937500 1.60358503125000 7.45447661875000 
 S -3.63858315937500 5.03816403125000 7.27499061875000 
