16

 C -3.11061977812500 1.47071150000000 5.45719114062500 
 C -3.27540677812500 5.06571050000000 5.57604314062500 
 C -4.30097777812500 0.991213499999999 4.89545014062500 
 C -4.44318377812500 4.58849050000000 4.87982214062500 
 N -2.15809877812500 1.66511450000000 4.55514514062500 
 N -2.24552777812500 5.36209550000000 4.80274214062500 
 N -4.21210777812500 0.707892499999999 3.57893214062500 
 N -4.30265377812500 4.60819650000000 3.53194614062500 
 N -4.69891677812500 1.11230550000000 7.45970714062500 
 N -4.98829277812500 4.87107050000000 7.45257614062500 
 S -5.61238277812500 0.978822499999999 6.05816114062500 
 S -5.73902677812500 4.36722350000000 6.03588814062500 
 S -2.66769977812500 1.07977750000000 3.10815714062500 
 S -2.72174377812500 5.10817050000000 3.26143614062500 
 S -3.17705177812500 1.67553550000000 7.14289914062500 
 S -3.30570177812500 5.05756650000000 7.30384914062500 
