16

 C -2.92811070937499 1.57277058125000 5.39250205000000 
 C -3.15274570937499 5.12775958125000 5.54075205000000 
 C -4.12629070937499 0.890333581249998 4.84719705000000 
 C -4.19803670937499 4.47223558125000 4.85661805000000 
 N -1.93365970937499 1.73895258125000 4.57008905000000 
 N -1.99674370937499 5.40354858125000 4.90431705000000 
 N -4.06300370937499 0.645451581250000 3.57516205000000 
 N -3.88699770937499 4.15940258125000 3.62697505000000 
 N -4.70361470937499 0.978562581249999 7.28477805000000 
 N -5.05684370937499 4.93974458125000 7.34850605000000 
 S -5.34972770937499 0.395070581249999 5.86125405000000 
 S -5.68376370937499 4.43424558125000 5.87170105000000 
 S -2.59323770937499 1.28274158125000 3.03694505000000 
 S -2.30011470937499 4.72532458125000 3.38290905000000 
 S -3.17753470937499 1.68643158125000 7.15111605000000 
 S -3.43747870937499 5.47895658125000 7.22216405000000 
