16

 C -3.23897720625000 1.25621970937500 5.29175928125000 
 C -2.95040720625000 5.24912170937500 5.34525328125000 
 C -4.49633820625000 0.950841709375000 4.68037228125000 
 C -4.10666720625000 4.64937070937500 4.77897428125000 
 N -2.24012920625000 1.22514470937500 4.44569828125000 
 N -1.85580320625000 5.36186270937500 4.58841528125000 
 N -4.38157220625000 0.572894709374999 3.43013128125000 
 N -3.94330520625000 4.42228070937500 3.48536128125000 
 N -4.99259720625000 1.63038970937500 7.10102628125000 
 N -4.72361620625000 5.02992370937500 7.18600528125000 
 S -5.81900220625000 0.935049709375000 5.78049228125000 
 S -5.41090720625000 4.35863570937500 5.82216428125000 
 S -2.77219620625000 0.718497709375000 2.96944628125000 
 S -2.41868120625000 4.87853370937500 3.10445228125000 
 S -3.34610920625000 1.56892970937500 7.00303228125000 
 S -3.16415020625000 5.53168370937500 7.05035228125000 
