16

 C -3.52745375625000 1.11340463125000 5.61316769375000 
 C -2.97903275625000 5.01944463125000 5.46950669375000 
 C -4.65610975625000 0.530329631250000 4.92307069375000 
 C -4.17091275625000 4.50087563125000 4.83808969375000 
 N -2.53268075625000 1.40468363125000 4.78954469375000 
 N -1.96058275625000 5.22580363125000 4.63260169375000 
 N -4.54013275625000 0.476424631250000 3.59420769375000 
 N -4.03585975625000 4.24893963125000 3.52771769375000 
 N -5.31444475625000 0.631369631250000 7.50894869375000 
 N -4.67894175625000 4.81181463125000 7.39561969375000 
 S -6.05338675625000 0.234507631250001 6.02730969375000 
 S -5.53745775625000 4.37762763125000 6.03512969375000 
 S -2.86264775625000 0.869759631250000 3.22460169375000 
 S -2.44374775625000 4.67993063125000 3.13416469375000 
 S -3.77569775625000 1.17570363125000 7.32029569375000 
 S -3.13121975625000 5.36740363125000 7.12373869375000 
