16

 C -3.78458357500000 1.14947990625000 5.66796688125000 
 C -3.10223557500000 5.00702790625000 5.30252688125000 
 C -4.87699457500000 0.522362906250001 4.93217588125000 
 C -4.32124757500000 4.41315790625000 4.81294988125000 
 N -2.73318457500000 1.47262990625000 4.89578688125000 
 N -2.07140957500000 5.09633190625000 4.47081088125000 
 N -4.67726257500000 0.534679906250002 3.61356288125000 
 N -4.27158757500000 4.22634990625000 3.51096188125000 
 N -5.60885157500000 0.671620906250002 7.41390988125000 
 N -4.75987457500000 5.02367090625000 7.31458088125000 
 S -6.18407257500000 0.187728906250002 5.96675788125000 
 S -5.55349157500000 4.24773590625000 6.07003888125000 
 S -3.10804757500000 1.15832590625000 3.30167388125000 
 S -2.67165557500000 4.52649090625000 3.01874788125000 
 S -4.06250257500000 1.20507490625000 7.40137588125000 
 S -3.16297857500000 5.46772590625000 6.96215688125000 
