16

 C -3.05448959375000 1.63293185625000 5.67406630312500 
 C -3.05810959375000 5.35335285625000 5.71630030312500 
 C -4.15743059375000 0.964468856250002 5.05705730312500 
 C -4.32766859375000 4.98731885625000 5.12848930312500 
 N -1.99666759375000 1.83830185625000 4.94688430312500 
 N -2.00816159375000 5.42665685625000 4.88471030312500 
 N -3.87514059375000 0.511699856250001 3.83752430312500 
 N -4.23319759375000 4.64700385625000 3.84917130312500 
 N -4.81347959375000 1.41164085625000 7.54626930312500 
 N -4.90654259375000 5.25525585625000 7.54979430312500 
 S -5.51745259375000 0.779292856250001 6.12811930312500 
 S -5.67782759375000 4.85976385625000 6.14817430312500 
 S -2.37927759375000 1.18415285625000 3.39516430312500 
 S -2.66156159375000 5.00130285625000 3.36302430312500 
 S -3.28588259375000 2.05694485625000 7.35383230312500 
 S -3.30020859375000 5.58598485625000 7.42947030312500 
