16

 C -3.33797439375000 1.20646136250001 5.42734520312500 
 C -3.19691039375000 5.19816736250000 5.10350620312500 
 C -4.43208939375000 0.581997362500005 4.74550220312500 
 C -4.21825639375000 4.43006736250000 4.43379020312500 
 N -2.31532939375000 1.52710136250001 4.64737920312500 
 N -2.32267739375000 5.69075636250001 4.26998220312500 
 N -4.23856839375000 0.415210362500005 3.44945520312500 
 N -4.10944439375000 4.33800136250001 3.10262920312500 
 N -5.13806239375000 0.846530362500005 7.22279320312500 
 N -4.81191739375000 4.24922436250001 6.87089920312500 
 S -5.77933739375000 0.196183362500005 5.84768420312500 
 S -5.46214539375000 3.89318636250001 5.41475820312500 
 S -2.75841639375000 1.16909136250001 3.09764520312500 
 S -2.70920639375000 5.15095736250001 2.69957620312500 
 S -3.61240839375000 1.44943436250001 7.13327220312500 
 S -3.47851039375000 5.22001036250001 6.81515720312500 
