16

 C -3.33006600937500 1.79236350312500 5.65974963437500 
 C -2.96828000937500 5.14252750312500 5.49088563437500 
 C -4.52185000937500 1.33722750312501 5.00674163437500 
 C -4.22416600937500 4.83117950312500 4.84656263437500 
 N -2.29120000937500 1.87500950312501 4.79399463437500 
 N -1.97979400937500 5.25754950312500 4.65958563437500 
 N -4.34946400937500 0.972254503125004 3.74272163437500 
 N -4.12367900937500 4.74159150312500 3.54146863437500 
 N -5.10292400937500 1.29702650312500 7.49278363437500 
 N -4.65500100937500 4.99048250312500 7.42206963437500 
 S -5.87168900937500 1.12499550312500 6.01870563437500 
 S -5.51755100937500 4.73313050312500 6.04732563437500 
 S -2.84489200937500 1.41560650312501 3.26906463437500 
 S -2.53968100937500 5.05494750312501 3.10416963437500 
 S -3.48806700937500 1.88139950312500 7.39771363437500 
 S -2.98641500937500 5.27687250312500 7.20386863437500 
