16

 C -2.91492698437500 1.57921240312500 5.38262411562500 
 C -3.00771398437500 5.15529040312500 5.68144511562500 
 C -4.18867498437500 1.24296740312500 4.80168111562500 
 C -4.17680198437500 4.66768540312500 4.99604211562500 
 N -1.88174498437500 1.54076640312500 4.51481611562500 
 N -1.95692398437500 5.40914340312500 4.88165811562500 
 N -4.13938898437500 0.985572403125001 3.48196611562500 
 N -4.01471398437500 4.47428440312500 3.71019811562500 
 N -4.50948298437500 1.25180140312500 7.42224211562500 
 N -4.89031498437500 4.85842940312500 7.47458111562500 
 S -5.39322498437500 1.10286440312500 6.04209411562500 
 S -5.53859598437500 4.36783540312500 6.02120111562500 
 S -2.61941398437500 1.31914840312500 3.02828111562500 
 S -2.50301898437500 5.06499340312500 3.31807311562500 
 S -2.88981398437500 1.61068040312500 7.18026611562500 
 S -3.30961598437500 5.37296240312500 7.41073511562500 
