16

 C -3.19883176250000 1.21366945937500 5.34156551562500 
 C -2.85876976250000 5.28002045937500 5.58529951562500 
 C -4.31717276250000 0.652248459374999 4.63616151562500 
 C -4.18094976250000 5.00485245937500 5.06885751562500 
 N -2.15368776250000 1.64642545937500 4.64898151562500 
 N -1.91485176250000 5.31713245937500 4.62209751562500 
 N -4.09962376250000 0.710627459374999 3.31917851562500 
 N -4.30606476250000 4.88693645937500 3.72308351562500 
 N -4.85954176250000 0.832281459374999 7.16754251562500 
 N -4.66319476250000 4.92255345937500 7.61301751562500 
 S -5.63032676250000 0.323989459374999 5.81070351562500 
 S -5.47808176250000 4.92530445937500 6.16748351562500 
 S -2.57824876250000 1.38829045937500 3.09691551562500 
 S -2.78455276250000 5.00860245937500 3.20811751562500 
 S -3.37715876250000 1.51574745937500 7.05129051562500 
 S -3.01083876250000 5.42129345937500 7.33542551562500 
