16

 C -2.84077472812500 1.38230596562500 5.70493606250000 
 C -3.02815772812500 4.74072496562500 5.42779006250000 
 C -4.00776572812500 0.740703965625001 5.16278306250000 
 C -4.31684572812500 4.44212396562500 4.78963706250000 
 N -1.89595872812500 1.51456896562500 4.75800306250000 
 N -2.03193572812500 4.80029396562500 4.54142906250000 
 N -3.90804272812500 0.348563965625002 3.90838706250000 
 N -4.24739772812500 4.06795996562500 3.51617806250000 
 N -4.71001772812500 1.51137196562500 7.56370806250000 
 N -4.85470272812500 5.09934396562500 7.21825406250000 
 S -5.35410972812500 0.810863965625002 6.16760606250000 
 S -5.66334172812500 4.55821396562500 5.83786406250000 
 S -2.43595072812500 0.801270965625002 3.39000206250000 
 S -2.68533972812500 4.40675696562500 3.07096206250000 
 S -3.07967872812500 1.85611796562500 7.34693006250000 
 S -3.20662372812500 5.40200196562500 7.10332806250000 
