16

 C -3.08207273437500 1.14570945000000 5.57687033125000 
 C -3.05893273437500 4.76607045000000 5.53826533125000 
 C -4.15236273437500 0.441952450000000 4.96059633125000 
 C -4.27641873437500 4.24396545000000 4.90681133125000 
 N -2.07490173437500 1.45987745000000 4.78568933125000 
 N -2.02919873437500 4.82683045000000 4.69112633125000 
 N -3.97661773437500 0.309117450000001 3.65941533125000 
 N -4.20040973437500 4.15193445000000 3.56270533125000 
 N -4.97621673437500 1.03625645000000 7.30950733125000 
 N -4.98535173437500 5.21342545000000 7.25458233125000 
 S -5.59115173437500 0.332274450000001 5.96289933125000 
 S -5.67757173437500 4.40447245000000 5.97193533125000 
 S -2.50272773437500 1.03580445000000 3.23060333125000 
 S -2.62105873437500 4.53227245000000 3.17731033125000 
 S -3.41864973437500 1.61927145000000 7.16345033125000 
 S -3.29638173437500 5.30514745000000 7.16002533125000 
