16

 C -3.22433546250000 1.37189647812500 5.31146604375000 
 C -3.09079146250000 4.90829547812500 5.52515804375000 
 C -4.25467246250000 0.603936478125000 4.83515204375000 
 C -4.40172646250000 4.59671847812500 4.96492304375000 
 N -2.22771546250000 1.59388347812500 4.44481004375000 
 N -2.16103846250000 4.91396447812500 4.58376904375000 
 N -4.12877346250000 0.287943478125000 3.55823304375000 
 N -4.45221846250000 4.61888347812500 3.63754104375000 
 N -4.87891446250000 1.15846647812500 7.21121304375000 
 N -4.71266146250000 4.83369747812500 7.49565904375000 
 S -5.53100946250000 0.276929478125000 5.91928904375000 
 S -5.61941646250000 4.49965647812500 6.13759004375000 
 S -2.72471546250000 0.980637478125000 3.05032204375000 
 S -2.90403246250000 4.74365647812500 3.13395004375000 
 S -3.36139546250000 1.78086747812500 6.99686304375000 
 S -3.10647046250000 5.22618847812500 7.31899604375000 
