16

 C -3.10500971875000 0.901876884374996 5.61015422812500 
 C -3.28526871875000 4.85397588437500 5.24592522812500 
 C -4.39015971875000 0.727419884374996 4.89307222812500 
 C -4.45330571875000 4.26453488437500 4.64183622812500 
 N -2.09380871875000 1.17979188437500 4.78939522812500 
 N -2.25640771875000 5.07998188437500 4.44534122812500 
 N -4.31991871875000 0.784447884374996 3.54936122812500 
 N -4.30151671875000 4.14168488437500 3.32916722812500 
 N -4.94371771875000 0.734149884374996 7.43789622812500 
 N -5.07147371875000 4.69940288437500 7.17736122812500 
 S -5.70161171875000 0.484805884374996 5.96688922812500 
 S -5.81557471875000 4.07836888437500 5.74345122812500 
 S -2.69799971875000 0.960728884374996 3.28456422812500 
 S -2.77149271875000 4.68749788437500 2.96011922812500 
 S -3.24962971875000 0.870916884374996 7.36973122812500 
 S -3.52828171875000 5.34136288437500 6.87922222812500 
