16

 C -2.85701333437500 1.50902715312500 5.43936169687500 
 C -3.47666533437500 5.13738215312500 5.19792669687500 
 C -4.05319233437500 1.05492415312500 4.84280169687500 
 C -4.55748033437500 4.32888815312500 4.65497169687500 
 N -1.79743633437500 1.60085015312500 4.67024069687500 
 N -2.34815033437500 5.16168515312500 4.48285069687500 
 N -3.92142433437500 0.895208153124999 3.52092669687500 
 N -4.32609833437500 3.98689715312500 3.39165469687500 
 N -4.78568933437500 1.42585215312500 7.14157769687500 
 N -5.33489333437500 5.14698015312500 6.99575469687500 
 S -5.41873233437500 0.804239153124999 5.73275669687500 
 S -5.90774433437500 4.11777715312500 5.77872169687500 
 S -2.35068533437500 1.14518515312500 3.10080769687500 
 S -2.76276033437500 4.38999915312500 3.02328069687500 
 S -3.17928933437500 1.95841415312500 7.06954969687500 
 S -3.83732133437500 5.80964415312500 6.72060669687500 
