16

 C -2.91521198125000 1.30136935312500 5.81106178125000 
 C -3.14577698125000 4.72905635312500 5.56961878125000 
 C -4.09710398125000 1.13653135312500 5.03669078125000 
 C -4.28725798125000 4.32684335312500 4.75748378125000 
 N -1.83854898125000 1.45548535312500 4.98929078125000 
 N -2.01910798125000 4.76136935312500 4.91000378125000 
 N -3.99392198125000 1.07851135312500 3.67507978125000 
 N -3.97273398125000 4.09721435312500 3.49010578125000 
 N -4.88628498125000 1.57815835312500 7.44284278125000 
 N -5.08974598125000 4.92466935312500 7.19254678125000 
 S -5.53471198125000 1.16579335312500 5.98190078125000 
 S -5.72712798125000 4.33923735312500 5.72802878125000 
 S -2.33623398125000 1.20804435312500 3.40283178125000 
 S -2.31148998125000 4.35908135312500 3.35473178125000 
 S -3.25805298125000 1.55077535312500 7.50008078125000 
 S -3.45796698125000 5.01975935312500 7.20856478125000 
