16

 C -3.20807957500000 1.17340643125000 5.55279263125000 
 C -3.31852657500000 4.96823143125000 5.54959263125000 
 C -4.42495157500000 0.881190431249999 4.88325563125000 
 C -4.49790357500000 4.45132343125000 4.86918163125000 
 N -2.18080857500000 1.40241743125000 4.76928363125000 
 N -2.32705257500000 5.22561343125000 4.64006363125000 
 N -4.29709657500000 0.909590431249999 3.55328863125000 
 N -4.39809857500000 4.46777843125000 3.56853763125000 
 N -4.95316157500000 1.24855643125000 7.45299263125000 
 N -5.25621157500000 4.71174643125000 7.27133863125000 
 S -5.73921857500000 0.884017431249999 6.01407063125000 
 S -5.79037657500000 4.13222843125000 5.88796863125000 
 S -2.69393957500000 1.18049143125000 3.26152963125000 
 S -2.91644457500000 4.96192643125000 3.11382363125000 
 S -3.28575757500000 1.61587443125000 7.21667063125000 
 S -3.61368757500000 5.12724743125000 7.32329863125000 
