16

 C -2.97659034687500 1.53086087187500 5.36497595312500 
 C -3.17194634687500 5.15992987187500 5.39537195312500 
 C -4.23128034687500 1.07857687187500 4.64051395312500 
 C -4.31596434687500 4.50112087187500 4.85781895312500 
 N -1.88388634687500 1.67630987187500 4.61902595312500 
 N -2.09282634687500 5.35127287187500 4.62374195312500 
 N -4.03965734687500 1.00478587187500 3.34146795312500 
 N -4.16078934687500 4.25936587187500 3.56182995312500 
 N -4.81237634687500 1.21200687187500 7.17471495312500 
 N -4.74141934687500 4.69556287187500 7.37085495312500 
 S -5.57187234687500 1.03122287187500 5.71162395312500 
 S -5.59355834687500 4.22451587187500 6.02719595312500 
 S -2.41280034687500 1.24067287187500 3.03645495312500 
 S -2.62507034687500 4.76243987187500 3.11909295312500 
 S -3.20583534687500 1.66341887187500 7.07477395312500 
 S -3.23782734687500 5.27535287187500 7.07725495312500 
