16

 C -3.15253037812500 1.44617762812500 5.42289295937500 
 C -3.32947937812500 5.13836662812500 5.40120795937500 
 C -4.36390737812500 0.747020628125002 4.87550995937500 
 C -4.57611237812500 4.66139962812500 4.83824095937500 
 N -2.15147037812500 1.55471962812500 4.57854795937500 
 N -2.33381637812500 5.21728662812500 4.53691495937500 
 N -4.23051937812500 0.264315628125002 3.66029895937500 
 N -4.49280737812500 4.28086862812500 3.55425995937500 
 N -4.89473137812500 1.31561062812500 7.29071495937500 
 N -4.88196537812500 4.99092362812500 7.40165195937500 
 S -5.54274937812500 0.411793628125002 6.05498595937500 
 S -5.81052937812500 4.77183162812500 6.03555495937500 
 S -2.76428237812500 0.823689628125002 3.16457095937500 
 S -2.90446337812500 4.62331762812500 3.07414995937500 
 S -3.33434037812500 1.93598562812500 7.04486695937500 
 S -3.26223937812500 5.48737662812500 7.11570395937500 
