16

 C -3.18532405937500 1.14648630937500 5.53975470625000 
 C -3.13076805937500 5.41054730937500 5.61283370625000 
 C -4.43972305937500 0.789254309374996 4.86601070625000 
 C -4.30646605937500 4.94357530937500 4.90477370625000 
 N -2.14018705937500 1.43727430937500 4.70069070625000 
 N -2.13633605937500 5.84664530937500 4.79471970625000 
 N -4.32850405937500 0.741628309374996 3.52749070625000 
 N -4.14014005937500 4.87418030937500 3.56707670625000 
 N -4.97399105937500 0.979879309374996 7.37726170625000 
 N -4.84521405937500 4.77217730937500 7.46922770625000 
 S -5.76276205937500 0.466186309374996 6.04557870625000 
 S -5.50094805937500 4.35462530937500 5.97105270625000 
 S -2.76635805937500 1.04554730937500 3.14193270625000 
 S -2.63888205937500 5.59086230937500 3.25059070625000 
 S -3.31147105937500 1.25018630937500 7.23942470625000 
 S -3.36717105937500 5.49933630937500 7.34444070625000 
