16

 C -3.15921265625000 1.01802504375000 5.51753541250000 
 C -3.22866465625000 4.65134504375000 5.65290041250000 
 C -4.34430965625000 0.711243043750003 4.75207541250000 
 C -4.51234865625000 4.49000604375000 5.03659741250000 
 N -2.12820765625000 1.38702404375000 4.77321041250000 
 N -2.23936965625000 4.86739804375000 4.78043041250000 
 N -4.21551565625000 0.783519043750002 3.43446641250000 
 N -4.51421865625000 4.35712704375000 3.69919641250000 
 N -5.12907565625000 0.433766043750003 7.12878541250000 
 N -4.91335965625000 4.82134104375000 7.56119641250000 
 S -5.69018165625000 0.125058043750002 5.58187641250000 
 S -5.78029065625000 4.43148604375000 6.18696541250000 
 S -2.70807165625000 1.33736804375000 3.23154141250000 
 S -2.92947265625000 4.71018804375000 3.29682541250000 
 S -3.46480365625000 0.796518043750002 7.21481741250000 
 S -3.29779365625000 4.98725204375000 7.39826941250000 
