16

 C -3.05529228125000 1.35866353125000 5.46731210625000 
 C -2.90645328125000 5.18197853125000 5.47430510625000 
 C -4.21156628125000 0.868587531249995 4.71985010625000 
 C -4.17638328125000 4.92235553124999 4.92320410625000 
 N -1.98516928125000 1.58093953125000 4.76412310625000 
 N -1.93160028125000 5.27621953125000 4.59990210625000 
 N -3.97376728125000 0.648161531249995 3.44907510625000 
 N -4.16252628125000 4.67067253124999 3.61750010625000 
 N -4.97589928125000 1.19979753125000 7.22384210625000 
 N -4.64554828125000 5.11687853124999 7.33902910625000 
 S -5.59718528125000 0.619172531249996 5.73262610625000 
 S -5.48634828125000 4.99811353125000 5.95747510625000 
 S -2.32895428125000 1.07918553125000 3.20477010625000 
 S -2.59729328125000 4.88730353125000 3.10666310625000 
 S -3.31342828125000 1.34492153124999 7.16506810625000 
 S -3.10226128125000 5.42125853125000 7.19400410625000 
