16

 C -2.94587593125000 1.48245415625000 5.63331050625000 
 C -3.07160693125000 5.03123815625000 5.32031950625000 
 C -4.18267893125000 0.836660156250000 5.06016350625000 
 C -4.28313493125000 4.43894315625000 4.77640650625000 
 N -1.94903593125000 1.54054715625000 4.74632650625000 
 N -2.04346293125000 4.91624415625000 4.47533750625000 
 N -4.07041693125000 0.433094156250000 3.81643850625000 
 N -4.22603393125000 4.13581415625000 3.48879350625000 
 N -4.66106793125000 1.36886615625000 7.42716450625000 
 N -4.89223793125000 5.15043215625000 7.12368850625000 
 S -5.51459293125000 0.752393156250000 6.16497550625000 
 S -5.65474593125000 4.42207915625000 5.80670750625000 
 S -2.54074493125000 0.820127156250000 3.34218550625000 
 S -2.65194993125000 4.27533015625000 3.06281050625000 
 S -3.05110893125000 1.84820715625000 7.31669750625000 
 S -3.24768593125000 5.37282015625000 6.96499550625000 
