16

 C -2.90589864375000 1.73755659375000 5.43359945312500 
 C -3.22196864375000 5.12263959375000 5.62189645312500 
 C -4.20381864375000 1.28205159375000 4.87299245312500 
 C -4.42908264375000 4.61175359375000 5.01468545312500 
 N -1.89123164375000 1.82190259375000 4.57176545312500 
 N -2.15782664375000 5.27341759375000 4.83108145312500 
 N -4.18287664375000 1.10677359375000 3.53895345312500 
 N -4.32413364375000 4.53469259375000 3.69996945312500 
 N -4.52080564375000 1.86921759375000 7.37914145312500 
 N -4.94806264375000 4.88118859375000 7.58236745312500 
 S -5.44992864375000 1.31348059375000 6.07806645312500 
 S -5.79495264375000 4.55043259375000 6.13248445312500 
 S -2.61940564375000 1.49806759375000 3.10390045312500 
 S -2.74393764375000 5.00545859375000 3.30894345312500 
 S -2.82875464375000 1.99928159375000 7.15242245312500 
 S -3.32960464375000 5.23849859375000 7.31803545312500 
