16

 C -3.18745390937500 1.71714413125000 5.67354406875000 
 C -2.97829090937500 5.12639913125000 5.45372706875000 
 C -4.41710790937500 1.27517713125000 5.05017306875000 
 C -4.22916990937500 4.79438013125000 4.80566806875000 
 N -2.19187690937500 1.80221013125000 4.81840106875000 
 N -1.89265690937500 5.33707713125000 4.66459806875000 
 N -4.40088690937500 1.04886913125000 3.75145906875000 
 N -4.08918290937500 4.77004913125000 3.45616706875000 
 N -5.03808790937500 1.37658613125000 7.48732406875000 
 N -4.66408190937500 5.07140813125000 7.44049906875000 
 S -5.79704690937500 1.06832813125000 6.03065406875000 
 S -5.57012490937500 4.65460813125000 6.02764406875000 
 S -2.85032890937500 1.40625513125000 3.24939306875000 
 S -2.48984790937500 5.07337913125000 3.10252306875000 
 S -3.48100190937500 1.87713913125000 7.42029406875000 
 S -2.95356390937500 5.28237913125000 7.16685506875000 
