16

 C -3.34388562500000 1.55748570625000 5.42556518125000 
 C -3.05997662500000 5.52117770625000 5.62508518125000 
 C -4.52013362500000 0.980778706250000 4.78199218125000 
 C -4.24083162500000 5.00906970625000 4.99412518125000 
 N -2.32470362500000 1.83372970625000 4.68296118125000 
 N -2.13951762500000 6.00015370625000 4.76919318125000 
 N -4.24597162500000 0.659097706250000 3.53601218125000 
 N -4.06937262500000 4.77326470625000 3.69458818125000 
 N -5.18254662500000 1.18401470625000 7.26042118125000 
 N -4.84263062500000 5.10570170625000 7.50480518125000 
 S -5.94079862500000 0.739077706250000 5.82256218125000 
 S -5.56832862500000 4.57850170625000 6.10002718125000 
 S -2.65586262500000 1.02363270625000 3.21260818125000 
 S -2.67641262500000 5.53167670625000 3.26168118125000 
 S -3.62604062500000 1.75875570625000 7.15943118125000 
 S -3.19185662500000 5.65378170625000 7.31608018125000 
