16

 C -3.15310733437500 1.36986094062500 5.52303722812500 
 C -2.90753933437500 5.20145694062500 5.88041822812500 
 C -4.33245633437500 0.994678940625000 4.89979022812500 
 C -4.07750233437500 4.75732994062500 5.17139922812500 
 N -2.15840233437500 1.67886294062500 4.70773922812500 
 N -1.86943633437500 5.49948494062500 5.09676922812500 
 N -4.19509933437500 0.806266940624999 3.59364922812500 
 N -3.84898633437500 4.54448494062500 3.87554822812500 
 N -4.87186533437500 0.812735940624999 7.31935322812500 
 N -4.78184033437500 4.83091094062500 7.65663922812500 
 S -5.67459033437500 0.685616940625000 5.88047622812500 
 S -5.53141433437500 4.69100494062500 6.18693922812500 
 S -2.72016933437500 1.45871094062500 3.18277322812500 
 S -2.32663333437500 5.12316694062500 3.57261522812500 
 S -3.26622033437500 1.34474994062500 7.27505822812500 
 S -3.18172133437500 5.35854794062500 7.55047222812500 
