16

 C -3.17827889375000 1.41774687500000 5.67695113750000 
 C -2.86693389375000 5.24276287500000 5.45388913750000 
 C -4.43652289375000 1.13661487500000 5.03125913750000 
 C -4.12039989375000 4.85782887500000 4.81609113750000 
 N -2.13471089375000 1.55292487500000 4.88213113750000 
 N -1.86600789375000 5.35707787500000 4.61533713750000 
 N -4.33079789375000 1.13369087500000 3.70779913750000 
 N -4.09675189375000 4.75678587500000 3.49797613750000 
 N -4.87133189375000 1.56758687500000 7.55463513750000 
 N -4.72340989375000 5.10736887500000 7.31828613750000 
 S -5.69471589375000 0.881992874999997 6.21112613750000 
 S -5.38164589375000 4.56738087500000 5.87726413750000 
 S -2.70439989375000 1.44547287500000 3.28812413750000 
 S -2.59081689375000 5.13084987500000 3.05220913750000 
 S -3.22352289375000 1.81554087500000 7.33595213750000 
 S -3.06463289375000 5.36213987500000 7.20894213750000 
