16

 C -3.22188138750000 1.59767965312500 5.62812774687500 
 C -3.01251038750000 5.26066365312500 5.89328874687500 
 C -4.27571138750000 0.842236653124996 4.96450374687500 
 C -4.21239538750000 4.68381565312500 5.32500674687500 
 N -2.29273338750000 2.06959465312500 4.82985574687500 
 N -2.06234838750000 5.65491065312500 4.98363874687500 
 N -4.08475838750000 0.798541653124996 3.65954874687500 
 N -4.16168338750000 4.47055065312500 4.01178774687500 
 N -5.05171438750000 1.11172165312500 7.48418174687500 
 N -4.71594638750000 4.96308465312500 7.79935174687500 
 S -5.66316438750000 0.608751653124996 5.95116874687500 
 S -5.53861938750000 4.54612465312500 6.51087674687500 
 S -2.67131738750000 1.49188865312500 3.31959174687500 
 S -2.68442838750000 5.10344765312500 3.53004074687500 
 S -3.52118438750000 1.82133965312500 7.39970374687500 
 S -3.19630838750000 5.52959065312500 7.63798674687500 
