16

 C -3.24923758125000 1.09076996875000 5.23397566875000 
 C -3.16076858125000 5.03958696875000 5.57829666875000 
 C -4.53402858125000 0.833329968750006 4.65440466875000 
 C -4.43897058125000 4.62586296875001 5.06270466875000 
 N -2.24380158125000 1.12346796875001 4.40055666875000 
 N -2.27284558125000 5.21495696875001 4.65503666875000 
 N -4.50880058125000 0.696224968750006 3.31719566875000 
 N -4.50276758125000 4.58178296875001 3.75264266875000 
 N -4.80084258125000 1.58283396875001 7.15274566875000 
 N -4.94675058125000 4.89150996875001 7.49846966875000 
 S -5.70284558125000 0.882917968750005 5.93256066875000 
 S -5.71456458125000 4.44200496875001 6.15552366875000 
 S -2.85500958125000 0.863753968750006 2.88395066875000 
 S -3.02239858125000 4.97687496875001 3.11366466875000 
 S -3.19063058125000 1.68726796875000 6.78405066875000 
 S -3.25288958125000 5.24652396875000 7.40358766875000 
