16

 C -3.09065840000001 1.40310954687500 5.42439405312500 
 C -3.48632040000001 5.18951554687500 5.36040905312500 
 C -4.37380640000001 1.03578854687500 4.94717405312500 
 C -4.60450840000001 4.56725454687500 4.83106105312500 
 N -2.11149740000001 1.38684654687500 4.48116005312500 
 N -2.50741640000001 5.50164554687500 4.52602205312500 
 N -4.36030440000001 0.755107546875005 3.61377805312500 
 N -4.46544440000001 4.39520354687500 3.53654705312500 
 N -4.83450740000001 1.13192554687500 7.46332005312500 
 N -4.91709540000001 4.50284554687500 7.33321405312500 
 S -5.65317940000001 0.932749546875003 6.01172305312500 
 S -5.83944940000001 4.20220454687500 6.04698305312500 
 S -2.88590440000001 0.988318546875004 3.04994205312500 
 S -2.98648840000001 4.99412754687500 3.07617305312500 
 S -3.19143440000001 1.59929954687500 7.22175805312500 
 S -3.39363840000001 5.21339954687500 7.04409705312500 
