16

 C -3.06127320312500 1.32391769375000 5.48164350000000 
 C -2.89826420312500 5.20190969375000 5.48929150000000 
 C -4.20856420312500 0.878195693749999 4.68836550000000 
 C -4.15988920312500 4.92893969375000 4.91781350000000 
 N -1.98902620312500 1.56267369375000 4.77544750000000 
 N -1.91315920312500 5.26681869375000 4.57947050000000 
 N -3.98492320312500 0.680628693749999 3.40384650000000 
 N -4.18002620312500 4.66804469375000 3.60859650000000 
 N -4.97049120312500 1.23199169375000 7.24379550000000 
 N -4.67532520312500 5.12648869375000 7.32504150000000 
 S -5.59801320312500 0.632362693749998 5.75716350000000 
 S -5.46360220312500 4.98812269375000 5.93729950000000 
 S -2.30648720312500 1.06950469375000 3.24434050000000 
 S -2.60018920312500 4.87864169375000 3.11389350000000 
 S -3.30484120312500 1.35736469375000 7.15479550000000 
 S -3.11709220312500 5.43211869375000 7.21844350000000 
