16

 C -3.15384797812500 1.48876624062500 5.58770994062500 
 C -2.85480697812500 5.34936724062500 5.37876894062500 
 C -4.39145497812500 0.953146240625000 5.06230994062500 
 C -4.12842097812500 4.87809224062500 4.83912194062500 
 N -2.15962997812500 1.63989824062500 4.70014794062500 
 N -1.91694697812500 5.61077624062500 4.50931994062500 
 N -4.31453197812500 0.583227240625000 3.76194294062500 
 N -4.14368097812500 4.77839024062500 3.52304494062500 
 N -4.62996397812500 1.15679324062500 7.65883794062500 
 N -4.56451597812500 4.92388624062500 7.35668294062500 
 S -5.58050097812500 0.761923240624999 6.32963794062500 
 S -5.45553597812500 4.65656524062500 5.95392494062500 
 S -2.79787097812500 1.11660324062500 3.22955794062500 
 S -2.67838097812500 5.23785124062500 2.99748594062500 
 S -3.05063997812500 1.62611324062500 7.24553194062500 
 S -2.99013997812500 5.39924824062500 7.23711794062500 
