16

 C -3.28717981250000 1.57444760000000 5.49511827500000 
 C -3.10728781250000 5.20489960000000 5.69383827500000 
 C -4.53726881250000 1.13431060000000 4.91548927500000 
 C -4.30604781250000 4.65780060000000 5.08917027500000 
 N -2.37589581250000 1.79692160000000 4.56593927500000 
 N -2.05893381250000 5.34065660000000 4.85525327500000 
 N -4.57435181250000 1.11002760000000 3.60702327500000 
 N -4.23477881250000 4.72161160000000 3.76601727500000 
 N -4.82467181250000 1.10671860000000 7.50230727500000 
 N -4.93040181250000 5.08812260000000 7.54675927500000 
 S -5.75741581250000 0.993973600000002 6.19387527500000 
 S -5.59676581250000 4.37477160000000 6.16611427500000 
 S -3.05225081250000 1.39392360000000 3.04933627500000 
 S -2.70605781250000 5.05493060000000 3.35577127500000 
 S -3.25171181250000 1.69126860000000 7.28952327500000 
 S -3.27495281250000 5.43721460000000 7.40145027500000 
