16

 C -3.07719495937500 1.31534060000000 5.61604656562500 
 C -3.34474395937500 5.38699160000000 5.32844056562500 
 C -4.18899995937500 0.638460600000000 4.99311856562500 
 C -4.31413695937500 4.43012360000000 4.86199756562500 
 N -2.00899395937500 1.50440360000000 4.86579056562500 
 N -2.32974395937500 5.56170660000000 4.46660456562500 
 N -3.99266695937500 0.381228600000001 3.70409556562500 
 N -4.01078895937500 3.87495360000000 3.66798856562500 
 N -4.90087495937500 1.06516560000000 7.45287956562500 
 N -5.09887095937500 5.08415160000000 7.29805056562500 
 S -5.49314495937500 0.288938600000001 6.09129456562500 
 S -5.57788995937500 4.14023260000000 5.97663156562500 
 S -2.49196995937500 0.983708600000001 3.33087756562500 
 S -2.62669495937500 4.64352960000000 3.13591456562500 
 S -3.35149095937500 1.61478260000000 7.42035556562500 
 S -3.63693795937500 5.88273760000000 7.02471856562500 
