16

 C -3.09822183125000 1.39311575625000 5.51218137812500 
 C -3.22649883125000 5.06129475625000 5.18971237812500 
 C -4.32236383125000 0.965743756250000 4.96223137812500 
 C -4.38421383125000 4.47995175625000 4.58688037812500 
 N -2.06704683125000 1.49297975625000 4.70116537812500 
 N -2.16382983125000 5.05599975625000 4.40530737812500 
 N -4.24951983125000 0.583278756250000 3.67514337812500 
 N -4.16374583125000 3.94126475625000 3.37258237812500 
 N -4.74193783125000 1.26169675625000 7.58283137812500 
 N -4.93608083125000 5.10494575625000 7.12497137812500 
 S -5.57144183125000 0.850740756250000 6.25418837812500 
 S -5.63362683125000 4.29285875625000 5.83447437812500 
 S -2.62883883125000 0.921581756250000 3.22050837812500 
 S -2.57780883125000 4.28944375625000 2.96629537812500 
 S -3.24329783125000 1.81305875625000 7.20508037812500 
 S -3.28498183125000 5.46742575625000 6.87310137812500 
