16

 C -3.31379745000000 1.44338989687500 5.44622143750000 
 C -3.33736545000000 5.15758589687500 5.40740243750000 
 C -4.55324645000000 0.992506896875000 4.76621343750000 
 C -4.49605645000000 4.47964889687500 4.84065543750000 
 N -2.25910045000000 1.65965089687500 4.64714643750000 
 N -2.33725245000000 5.38893489687500 4.53845143750000 
 N -4.39950745000000 0.834121896875000 3.42433743750000 
 N -4.46012345000000 4.46230089687500 3.52238643750000 
 N -4.99493945000000 1.25804289687500 7.30607943750000 
 N -5.02113845000000 4.64076789687500 7.26407843750000 
 S -5.80071245000000 0.725454896875000 5.93173243750000 
 S -5.76806445000000 4.07298089687500 5.90036243750000 
 S -2.79803445000000 1.22200189687500 3.15764043750000 
 S -2.91599045000000 4.88106289687500 3.05932743750000 
 S -3.32195445000000 1.51873089687500 7.18603043750000 
 S -3.40078245000000 5.11065989687500 7.14115543750000 
