16

 C -2.98311282812500 1.74344056250000 5.65325260312500 
 C -3.14185082812500 5.47031756250000 5.65829160312500 
 C -4.05505182812500 0.971742562499998 5.11931160312500 
 C -4.31676382812500 4.90255256250000 5.03660660312500 
 N -2.00021882812500 1.94700656250000 4.79830660312500 
 N -2.13138382812500 5.55322356250000 4.79236460312500 
 N -3.92700682812500 0.602064562499998 3.84742960312500 
 N -4.17995182812500 4.55230156250000 3.73917360312500 
 N -4.76526682812500 1.35985556250000 7.44865660312500 
 N -4.88565682812500 5.30407956250000 7.57185460312500 
 S -5.43169282812500 0.785254562499999 6.06266960312500 
 S -5.66287482812500 4.93364956250000 6.11061260312500 
 S -2.42227682812500 1.10878256250000 3.49048960312500 
 S -2.63919282812500 4.94979856250000 3.34017060312500 
 S -3.25122882812500 2.10741856250000 7.36245460312500 
 S -3.24011882812500 5.60958256250000 7.43168360312500 
