16

 C -2.94833508124999 1.44735980937500 5.78723125937500 
 C -3.17825008124999 4.62056280937500 5.60296325937500 
 C -4.20783708124999 1.23230180937500 5.13989425937500 
 C -4.45730008124999 4.50118880937500 4.90757825937500 
 N -1.92976808124999 1.51037780937500 4.93598625937500 
 N -2.09690508124999 4.67958980937500 4.86411725937500 
 N -4.09262208124999 0.988496809374999 3.83465325937500 
 N -4.34377808124999 4.57376180937500 3.57712025937500 
 N -4.73320608124999 1.51101880937500 7.61798325937500 
 N -4.94285408124999 4.59980580937500 7.47430025937500 
 S -5.51605308124999 1.25025780937500 6.22344725937500 
 S -5.75718108124999 4.36363480937500 6.03679725937500 
 S -2.53245208124999 1.27135380937500 3.33984325937500 
 S -2.71616208124999 4.64610580937500 3.29370025937500 
 S -3.09723908124999 1.65729180937500 7.50685725937500 
 S -3.33143308124999 4.89611080937500 7.26500325937500 
