16

 C -3.08715896562500 1.39903001562500 5.37405037187500 
 C -3.32071696562500 4.91660401562500 5.46798937187500 
 C -4.30904596562500 0.899326015624998 4.84003537187500 
 C -4.54677096562500 4.49935501562500 4.81808637187500 
 N -2.12517696562500 1.62615601562500 4.46213837187500 
 N -2.32628296562500 5.31133901562500 4.64041537187500 
 N -4.27235096562500 0.815841015624998 3.49374437187500 
 N -4.38485196562500 4.32721601562500 3.49430537187500 
 N -4.82789096562500 1.12828301562500 7.32931537187500 
 N -5.00567096562500 4.58378901562500 7.41918937187500 
 S -5.63173696562500 0.751428015624998 5.93763637187500 
 S -5.72202996562500 4.06614101562500 5.98250037187500 
 S -2.78616796562500 1.30953901562500 2.96501437187500 
 S -2.91494296562500 5.03299301562500 3.13688337187500 
 S -3.28156596562500 1.62398301562500 7.06422537187500 
 S -3.43345096562500 5.04585301562500 7.23518237187500 
