16

 C -3.53026280625000 1.30548034687500 5.50083930625000 
 C -3.01553080625000 5.17752934687500 5.41705630625000 
 C -4.54680280625000 0.603753346875004 4.75626930625000 
 C -4.21384880625000 4.83622634687500 4.74054330625000 
 N -2.42841180625000 1.56163634687500 4.82493830625000 
 N -1.92585380625000 5.02624934687500 4.63212830625000 
 N -4.17360680625000 0.322921346875004 3.48143830625000 
 N -4.07281180625000 4.44172534687500 3.44310830625000 
 N -5.39811880625000 1.03897434687500 7.29572930625000 
 N -5.01349380625000 5.35388534687500 7.00677130625000 
 S -5.89437780625000 0.194624346875004 5.87160430625000 
 S -5.70348680625000 4.84896434687500 5.55328130625000 
 S -2.68634480625000 1.06672434687500 3.31975230625000 
 S -2.45078680625000 4.53280334687500 3.16714130625000 
 S -3.86006380625000 1.67490434687500 7.12184530625000 
 S -3.39229980625000 5.51587034687500 7.13553030625000 
