16

 C -2.88136608125000 1.74711216562500 5.69329858750000 
 C -3.31299508125000 5.45093216562500 5.33632058750000 
 C -4.18367308125000 1.60431116562500 5.03400858750000 
 C -4.51263208125000 4.91372216562500 4.73693358750000 
 N -1.84459308125000 1.91624516562500 4.86076058750000 
 N -2.35054208125000 5.71745116562500 4.45874458750000 
 N -4.17488508125000 1.56487616562500 3.68861358750000 
 N -4.47225008125000 4.84297716562500 3.37842158750000 
 N -4.65875808125000 1.64146816562500 7.56379758750000 
 N -4.91308208125000 5.08070516562500 7.31133858750000 
 S -5.51424608125000 1.41984416562500 6.15927858750000 
 S -5.65253508125000 4.45700616562500 5.94460458750000 
 S -2.55440408125000 1.78062516562500 3.37184458750000 
 S -2.89384008125000 5.29899716562500 3.01178158750000 
 S -2.99596108125000 1.87830816562500 7.43244158750000 
 S -3.41850108125000 5.67275816562500 7.01626958750000 
