16

 C -3.36769576562500 1.51213373437500 5.48124637500000 
 C -3.06569076562500 5.30625473437500 5.63672737500000 
 C -4.50912276562500 1.02757673437500 4.75294337500000 
 C -4.35233376562500 5.02855773437500 5.05430837500000 
 N -2.25984376562500 1.65717573437500 4.75358737500000 
 N -2.08087376562500 5.58706573437500 4.73371037500000 
 N -4.27204776562500 0.728936734375000 3.44608037500000 
 N -4.29110476562500 4.89260373437500 3.70520937500000 
 N -5.33576476562500 1.44305773437500 7.15348137500000 
 N -4.86574776562500 5.08005373437500 7.55450637500000 
 S -5.84061276562500 0.734209734375000 5.73291437500000 
 S -5.59600976562500 4.64216473437500 6.15192337500000 
 S -2.78915576562500 1.39294273437500 3.15615737500000 
 S -2.76078876562500 5.31005373437500 3.23273737500000 
 S -3.79541576562500 2.02186473437500 7.09399837500000 
 S -3.21757176562500 5.52326973437500 7.39065937500000 
