16

 C -3.22210590625000 1.65816223437500 5.37436988437500 
 C -3.04163790625000 4.97187823437500 5.50007588437500 
 C -4.40547890625000 1.24539723437500 4.68054688437500 
 C -4.29220890625000 4.59532123437500 4.87071688437500 
 N -2.19255890625000 1.91432223437500 4.59969488437500 
 N -1.93932390625000 5.08816623437500 4.71034688437500 
 N -4.25595990625000 1.22052823437500 3.35209888437500 
 N -4.15624590625000 4.58391323437500 3.53107388437500 
 N -4.96645290625000 1.05595623437500 7.23360188437500 
 N -4.81860590625000 4.89691523437500 7.29603188437500 
 S -5.69249490625000 0.935809234375003 5.73462788437500 
 S -5.74598090625000 4.64155523437500 5.90535888437500 
 S -2.63973590625000 1.64208723437500 3.05606888437500 
 S -2.57491590625000 4.94734823437500 3.17788388437500 
 S -3.39884090625000 1.66966123437500 7.12819888437500 
 S -3.18838890625000 5.05822823437500 7.21536788437500 
