16

 C -3.40887749062500 1.72605695625000 5.57973060312500 
 C -3.06892449062500 5.16725195625000 5.59143860312500 
 C -4.64564949062500 1.29093095625000 4.92955660312500 
 C -4.36574949062500 4.98996495625000 4.99284460312500 
 N -2.34749649062500 1.80789595625000 4.75062360312500 
 N -2.02444949062500 5.18462595625000 4.78915060312500 
 N -4.54221249062500 1.07290295625000 3.63787360312500 
 N -4.33756549062500 4.82512095625000 3.68405460312500 
 N -5.24522249062500 1.46209195625000 7.36604860312500 
 N -4.62052949062500 5.20319695625000 7.61663060312500 
 S -5.97129249062500 0.999970956249998 5.93790960312500 
 S -5.55944849062500 4.94929495625000 6.33504260312500 
 S -2.98557349062500 1.50466095625000 3.17531160312500 
 S -2.70895949062500 4.96742195625000 3.27815360312500 
 S -3.62428149062500 1.77834395625000 7.36475260312500 
 S -2.99172749062500 5.26662195625000 7.32608360312500 
