16

 C -2.89603988437500 1.46475450625000 5.38950714687500 
 C -3.40953688437500 5.22446450625000 5.27265114687500 
 C -4.08104288437500 1.02159250625000 4.69665614687500 
 C -4.47896388437500 4.45830050625000 4.68234314687500 
 N -1.80214288437500 1.48047150625000 4.61036714687500 
 N -2.34868788437500 5.27314850625000 4.45973814687500 
 N -3.92372188437500 0.797779506249999 3.37594014687500 
 N -4.30473888437500 3.91399150625000 3.47563314687500 
 N -4.73587588437500 1.34067650625000 7.25236714687500 
 N -5.23740388437500 5.17017750625000 7.04095914687500 
 S -5.48331988437500 0.903213506249999 5.81726114687500 
 S -5.76530788437500 4.27179150625000 5.77711114687500 
 S -2.36368688437500 1.20074250625000 3.06997514687500 
 S -2.72724488437500 4.44684550625000 3.07787114687500 
 S -3.12425388437500 1.75145350625000 7.15873214687500 
 S -3.80432988437500 5.92903550625000 6.81906814687500 
