16

 C -3.16320613437500 0.804017171875002 5.66606127187500 
 C -3.00249513437500 5.08191917187500 5.43619827187500 
 C -4.38687013437500 0.542876171875003 4.87818527187500 
 C -4.20429213437500 4.67571517187500 4.73290427187500 
 N -2.12498113437500 1.08344117187500 4.91837627187500 
 N -1.96675913437500 5.26590017187500 4.60871627187500 
 N -4.20165413437500 0.616959171875003 3.57897927187500 
 N -4.01867313437500 4.34492017187500 3.44249827187500 
 N -5.10842013437500 0.689325171875002 7.30879427187500 
 N -4.79353513437500 4.79736717187500 7.20340427187500 
 S -5.83183413437500 0.334392171875002 5.81587527187500 
 S -5.47057113437500 4.22385617187500 5.80866227187500 
 S -2.60931713437500 0.918686171875002 3.37962227187500 
 S -2.42609913437500 4.70994417187500 3.16091327187500 
 S -3.45188613437500 0.985388171875003 7.41435927187500 
 S -3.22209913437500 5.19161417187500 7.17889627187500 
