16

 C -2.86094068750000 1.77133628437500 5.67790290312500 
 C -3.13223068750000 5.24851128437500 5.68668290312500 
 C -4.18112568750000 1.62128528437500 5.08078290312500 
 C -4.42185368750000 4.92925428437500 5.12541190312500 
 N -1.88035168750000 1.75185528437500 4.79293490312500 
 N -2.13464968750000 5.33004528437500 4.81834490312500 
 N -4.09424268750000 1.64080128437500 3.77888390312500 
 N -4.35464968750000 4.78185128437500 3.80754790312500 
 N -4.58661968750000 1.57415328437500 7.62388890312500 
 N -4.83951168750000 5.24180528437500 7.63996890312500 
 S -5.45848668750000 1.43043228437500 6.26670590312500 
 S -5.68996468750000 4.73010628437500 6.29466190312500 
 S -2.50326268750000 1.69848928437500 3.24726190312500 
 S -2.81656768750000 4.96036828437500 3.31850190312500 
 S -2.98382968750000 1.88280028437500 7.41709290312500 
 S -3.21584768750000 5.60742128437500 7.39511990312500 
