16

 C -3.23475836250000 1.27863352812500 5.27983932500000 
 C -2.95902036250000 5.29807052812500 5.33552432500000 
 C -4.48074736250000 0.951955528125003 4.68618132500000 
 C -4.11722736250000 4.66589352812500 4.77591032500000 
 N -2.21441736250000 1.22953952812500 4.44309532500000 
 N -1.85704536250000 5.35404552812500 4.59780032500000 
 N -4.37761436250000 0.578773528125003 3.40936132500000 
 N -3.92989136250000 4.46429052812500 3.47312532500000 
 N -4.98253336250000 1.60585852812500 7.13669132500000 
 N -4.72111236250000 5.00299352812500 7.19951532500000 
 S -5.82345236250000 0.929822528125003 5.82090132500000 
 S -5.41692636250000 4.36471252812500 5.81822132500000 
 S -2.76554236250000 0.697269528125003 2.98034932500000 
 S -2.39858636250000 4.88574152812500 3.09029632500000 
 S -3.33951636250000 1.55850152812500 6.99978232500000 
 S -3.14698536250000 5.52340952812500 7.05546232500000 
