16

 C -3.26197999687500 1.36667855312500 5.31536731875000 
 C -3.17904899687500 5.39468355312500 5.68638731875000 
 C -4.40676299687500 0.638124553124996 4.79465031875000 
 C -4.38947199687500 4.80666755312500 5.06837131875000 
 N -2.16261099687500 1.33678355312500 4.60374131875000 
 N -2.15987599687500 5.49619755312500 4.80908831875000 
 N -4.21026599687500 7.860255312499653E-002 3.59080031875000 
 N -4.28238799687500 4.46445255312500 3.75424731875000 
 N -5.06029299687500 1.62187255312500 7.13319831875000 
 N -4.99142299687500 5.15917455312500 7.46389931875000 
 S -5.73606699687500 0.577301553124996 6.01989431875000 
 S -5.69225099687500 4.47140255312500 6.11203231875000 
 S -2.59204499687500 0.596054553124996 3.20158031875000 
 S -2.69243899687500 4.82078655312500 3.38325331875000 
 S -3.45772599687500 2.03629955312500 6.88226331875000 
 S -3.43486899687500 5.73947455312500 7.40643531875000 
