16

 C -3.57541841875000 1.82953348750000 5.31238394062500 
 C -3.24170141875000 4.99681648750000 5.68023694062500 
 C -4.63743341875000 1.21328348750000 4.58876594062500 
 C -4.49408441875000 4.79354848750000 5.01610394062500 
 N -2.48702041875000 2.05265348750000 4.59988494062500 
 N -2.20802441875000 5.16472248750000 4.87709794062500 
 N -4.35590641875000 0.898553487500001 3.38300894062500 
 N -4.37347541875000 4.63632648750000 3.71476794062500 
 N -5.39047541875000 1.35114948750000 7.07959294062500 
 N -4.96430841875000 5.01776348750000 7.62830794062500 
 S -5.90950941875000 0.778537487500000 5.64570494062500 
 S -5.80599341875000 4.75318848750000 6.15912994062500 
 S -2.78825841875000 1.57771548750000 3.07233694062500 
 S -2.78763841875000 4.85771048750000 3.34876994062500 
 S -3.84307541875000 1.87532448750000 7.09473194062500 
 S -3.30924041875000 5.23346248750000 7.40774794062500 
