16

 C -3.13778526250000 1.34586855937500 5.25671281250000 
 C -3.01725826250000 4.92102055937500 5.53437681250000 
 C -4.23753526250000 0.680017559375001 4.69557081250000 
 C -4.34152626250000 4.69166555937500 5.03948281250000 
 N -2.19454126250000 1.74092155937500 4.39951081250000 
 N -2.00760626250000 4.99108755937500 4.66998281250000 
 N -4.08852726250000 0.367005559375001 3.40480281250000 
 N -4.32055326250000 4.55346955937500 3.71729681250000 
 N -4.92473426250000 1.00090555937500 7.15956881250000 
 N -4.65699326250000 4.86987555937500 7.61629181250000 
 S -5.54178526250000 0.276228559375001 5.79581481250000 
 S -5.55091026250000 4.39917855937500 6.28057181250000 
 S -2.63758626250000 1.05519455937500 2.94093781250000 
 S -2.77125726250000 4.77628555937500 3.20758281250000 
 S -3.38502426250000 1.61563455937500 7.03933681250000 
 S -3.01311826250000 5.05927855937500 7.23785881250000 
