16

 C -3.12337449375000 1.07711436875000 5.57344591250000 
 C -3.49253049375000 5.04966036875000 5.15876591250000 
 C -4.35220049375000 0.678089368750004 4.96674791250000 
 C -4.54664849375000 4.22825236875000 4.59203991250000 
 N -2.09685049375000 1.26614536875000 4.72759791250000 
 N -2.49936649375000 5.22353836875000 4.28013991250000 
 N -4.32135949375000 0.571167368750004 3.63391391250000 
 N -4.43216149375000 3.95680436875000 3.27738991250000 
 N -4.82858549375000 0.769361368750004 7.51928291250000 
 N -5.26322449375000 4.79012036875000 6.99578191250000 
 S -5.73332049375000 0.571827368750004 6.14226091250000 
 S -5.84600349375000 3.95201336875000 5.64952691250000 
 S -2.79573149375000 1.11885636875000 3.20593391250000 
 S -2.97482049375000 4.55922336875000 2.83380891250000 
 S -3.17220649375000 1.01511736875000 7.33995691250000 
 S -3.65069349375000 5.20768536875000 6.91974391250000 
