16

 C -2.87938744687500 1.72250532187500 5.39673821250000 
 C -3.46915944687500 5.16823032187500 5.54395621250000 
 C -3.91732544687500 0.979325321875002 4.76073921250000 
 C -4.52248644687500 4.36435932187500 4.93892821250000 
 N -1.94314944687500 2.11298432187500 4.56597521250000 
 N -2.47230044687500 5.56602832187500 4.73195221250000 
 N -3.72123044687500 0.828460321875001 3.46345021250000 
 N -4.42161544687500 4.39726132187500 3.62030021250000 
 N -4.47644144687500 1.14946632187500 7.29001021250000 
 N -5.27418344687500 4.66928932187500 7.38888521250000 
 S -5.07674944687500 0.445424321875001 5.93462421250000 
 S -5.86476044687500 3.94445132187500 6.01782821250000 
 S -2.28238344687500 1.61569032187500 3.01704921250000 
 S -2.97110244687500 5.07486432187500 3.20630621250000 
 S -3.02591244687500 1.95583532187500 7.11743221250000 
 S -3.74049444687500 5.26975732187500 7.27942421250000 
