16

 C -2.96986463750000 1.43396433750000 5.45959726250000 
 C -3.26066763750000 5.28548733750000 5.45673426250000 
 C -4.25880963750000 0.920938337499998 4.87863626250000 
 C -4.44292563750000 4.82508633750000 4.77842426250000 
 N -2.04953363750000 1.70141433750000 4.54385726250000 
 N -2.23121363750000 5.62237833750000 4.68545326250000 
 N -4.28581463750000 0.863742337499998 3.54601226250000 
 N -4.27013263750000 4.66268333750000 3.48128826250000 
 N -4.67025663750000 1.19523233750000 7.32773226250000 
 N -5.14259363750000 4.67245733750000 7.24116326250000 
 S -5.47247263750000 0.707194337499998 5.97423526250000 
 S -5.83105463750000 4.41490033750000 5.72566226250000 
 S -2.76387163750000 1.22018633750000 3.09617926250000 
 S -2.75845363750000 5.15121533750000 3.11056026250000 
 S -3.06118763750000 1.62373833750000 7.14895426250000 
 S -3.54303863750000 5.21957133750000 7.18948826250000 
