16

 C -3.36600950937500 1.05020460312500 5.63665664062500 
 C -2.97216450937500 5.12232360312500 5.52725264062500 
 C -4.58596650937500 0.625257603124999 4.91352364062500 
 C -4.15308850937500 4.61252160312500 4.88234364062500 
 N -2.29031850937500 1.20465860312500 4.85213364062500 
 N -1.93283050937500 5.15305660312500 4.69436664062500 
 N -4.38163550937500 0.400427603124999 3.61018164062500 
 N -4.03683850937500 4.34353660312500 3.58343764062500 
 N -5.25414950937500 0.806653603125000 7.31680964062500 
 N -4.70622650937500 4.79829560312500 7.37779164062500 
 S -5.92770650937500 0.241741603124999 5.92715464062500 
 S -5.43358550937500 4.32543760312500 5.97805264062500 
 S -2.88395250937500 0.881116603124999 3.33697064062500 
 S -2.47084250937500 4.74545060312500 3.17785964062500 
 S -3.63993350937500 1.24220460312500 7.33186664062500 
 S -3.14624650937500 5.36825660312500 7.27800764062500 
