16

 C -3.21108718125000 1.16339710625000 5.37612134062500 
 C -3.02076818125000 5.31656310625000 5.62841834062500 
 C -4.34000918125000 0.510844106250000 4.79399534062500 
 C -4.25653618125000 4.78939010625000 4.98313534062500 
 N -2.07878018125000 1.27657210625000 4.66169834062500 
 N -2.02760518125000 5.42493210625000 4.74378234062500 
 N -4.08827118125000 1.627106250000843E-003 3.57954734062500 
 N -4.18713118125000 4.44841210625000 3.73985234062500 
 N -5.03307418125000 1.20162910625000 7.24749634062500 
 N -4.93138118125000 5.16419810625000 7.43359534062500 
 S -5.76075618125000 0.634679106250000 5.81101634062500 
 S -5.67544118125000 4.74593310625000 5.97039234062500 
 S -2.44631418125000 0.480680106250000 3.25909334062500 
 S -2.65448218125000 4.91437810625000 3.27241134062500 
 S -3.43316718125000 1.72035010625000 7.01413234062500 
 S -3.33466418125000 5.66524110625000 7.31900334062500 
