16

 C -3.04070177812500 1.09325542187500 5.48925255312500 
 C -3.08806277812500 5.06272842187500 5.55006555312500 
 C -4.20979377812500 0.624162421874996 4.81146355312500 
 C -4.34810377812500 4.84288442187500 4.90268655312500 
 N -1.94962677812500 1.09936042187500 4.72927155312500 
 N -1.99175377812500 5.00100342187500 4.78749155312500 
 N -3.97747977812500 0.335288421874996 3.54888055312500 
 N -4.18234777812500 4.69272542187500 3.54083255312500 
 N -5.07229177812500 1.19910642187500 7.10367855312500 
 N -4.84884477812500 5.19906342187500 7.34064155312500 
 S -5.63190677812500 0.482868421874996 5.71331955312500 
 S -5.69442277812500 4.74861542187500 6.01168455312500 
 S -2.46002677812500 0.674279421874996 3.16362155312500 
 S -2.59143377812500 4.74152642187500 3.22514655312500 
 S -3.41146577812500 1.37334242187500 7.19852155312500 
 S -3.20855277812500 5.45611442187500 7.21973555312500 
