16

 C -3.31389770625001 1.10199470937500 5.46312961875000 
 C -3.26734470625001 5.17329970937500 5.30178061875000 
 C -4.54561470625001 0.776032709375001 4.70710361875000 
 C -4.32888170625001 4.49644570937500 4.59002961875000 
 N -2.19712170625001 1.12598570937500 4.72359061875000 
 N -2.31244170625001 5.66106170937500 4.54100861875000 
 N -4.33970870625001 0.669792709375002 3.39676161875000 
 N -4.22432670625001 4.51167870937500 3.26046761875000 
 N -5.16118070625001 0.802394709375001 7.24856561875000 
 N -5.08665270625001 4.66502870937500 7.10969161875000 
 S -5.89631870625001 0.422581709375002 5.78032061875000 
 S -5.54963170625001 3.88624270937500 5.71416161875000 
 S -2.70981370625001 0.928544709375001 3.13739161875000 
 S -2.76601270625001 5.25304670937500 3.01667361875000 
 S -3.54310370625001 1.08336870937500 7.17532561875000 
 S -3.60215270625001 5.34808470937500 7.02111361875000 
