16

 C -3.37841686250000 1.41298198749999 5.40183665312500 
 C -3.16243886250000 4.91387398749999 4.96855165312500 
 C -4.43470986250000 0.635003987499993 4.79564665312500 
 C -4.34258986250000 4.44729398749999 4.27033865312500 
 N -2.42273886250000 1.86953798749999 4.55693365312500 
 N -2.12259286250000 5.16850698749999 4.17882665312500 
 N -4.22966986250000 0.280879987499993 3.52369465312500 
 N -4.24738586250000 4.46018098749999 2.96750165312500 
 N -5.14877186250000 0.782063987499994 7.27462965312500 
 N -4.88574086250000 4.55628098749999 6.85352865312500 
 S -5.78025686250000 0.218929987499993 5.83825665312500 
 S -5.52802286250000 3.89315298749999 5.45795065312500 
 S -2.89489986250000 1.16376198749999 3.10662165312500 
 S -2.63423486250000 4.94390798749999 2.67874465312500 
 S -3.59490586250000 1.43785998749999 7.20251165312500 
 S -3.39639986250000 5.20042798749999 6.64312765312500 
