16

 C -2.89295932500000 1.65491343125000 5.75292035000000 
 C -3.11145432500000 5.33773843125000 5.69848335000000 
 C -4.18438432500000 1.46360143125000 5.10558835000000 
 C -4.36526232500000 4.88722643125000 5.14001635000000 
 N -1.86829432500000 1.76648543125000 4.88868935000000 
 N -2.10134632500000 5.34436843125000 4.80233135000000 
 N -4.15652532500000 1.55713943125000 3.77203035000000 
 N -4.38643632500000 4.76201843125000 3.82247835000000 
 N -4.67099032500000 1.66374543125000 7.63412435000000 
 N -4.85709232500000 5.26745243125001 7.63459835000000 
 S -5.46934232500000 1.44899543125000 6.16626435000000 
 S -5.62106632500000 4.80202743125000 6.23856235000000 
 S -2.62032732500000 1.83210543125000 3.40221935000000 
 S -2.85874832500000 5.04569143125000 3.30409935000000 
 S -2.98025932500000 1.81901243125000 7.49441435000000 
 S -3.20784132500000 5.57470443125001 7.42080635000000 
