16

 C -2.97967421250000 1.25940025937499 5.33176700312500 
 C -2.84882921250000 5.15649225937500 5.69400000312500 
 C -4.10286121250000 0.746527259374995 4.65361000312500 
 C -4.12110121250000 4.69953525937499 5.17851000312500 
 N -1.85962721250000 1.39745925937499 4.62059400312500 
 N -1.93397021250000 5.19082525937500 4.73571900312500 
 N -3.93657521250000 0.545515259374995 3.32615800312500 
 N -4.20197021250000 4.49737825937499 3.87196300312500 
 N -4.75091521250000 0.849268259374995 7.19716500312500 
 N -4.42717821250000 4.79703625937500 7.68922800312500 
 S -5.43149121250000 0.368705259374995 5.73351100312500 
 S -5.29630521250000 4.29655625937499 6.35737900312500 
 S -2.31486021250000 0.978774259374995 3.11898700312500 
 S -2.66007821250000 4.82460025937500 3.29832100312500 
 S -3.23088721250000 1.50318425937499 7.06159900312500 
 S -2.88194821250000 5.34394625937499 7.42775200312500 
