16

 C -3.16011786562500 1.18578766875000 5.20212331250000 
 C -3.23752786562500 4.99898766875000 5.48233231250000 
 C -4.47335886562500 0.848622668749997 4.66152331250000 
 C -4.54679486562500 4.62359966875000 4.91689631250000 
 N -2.21934086562500 1.14253666875000 4.26848031250000 
 N -2.28796786562500 5.20606766875000 4.60166431250000 
 N -4.51928386562500 0.696140668749998 3.33016831250000 
 N -4.53398486562500 4.52762166875000 3.56493731250000 
 N -4.87055586562500 1.37785366875000 7.09236831250000 
 N -4.83287686562500 4.91477266875000 7.57154031250000 
 S -5.78986186562500 0.821236668749997 5.85650031250000 
 S -5.78779186562500 4.46339566875000 6.16448731250000 
 S -2.95860886562500 0.807183668749997 2.84965731250000 
 S -2.97980586562500 4.93345166875000 3.15160031250000 
 S -3.22431886562500 1.63238166875000 6.90563231250000 
 S -3.23648686562500 5.25238066875000 7.21571231250000 
