16

 C -2.97561102187500 1.25929263125000 5.33531052500000 
 C -2.84352702187500 5.15833163125000 5.69520452500000 
 C -4.11019202187500 0.748622631250001 4.64328152500000 
 C -4.12023702187500 4.69947763125000 5.17988852500000 
 N -1.85769202187500 1.40365863125000 4.62096052500000 
 N -1.93370302187500 5.19749663125000 4.73037252500000 
 N -3.94029402187500 0.542376631250001 3.31818052500000 
 N -4.20712102187500 4.49151963125000 3.86790252500000 
 N -4.74658702187500 0.842540631250001 7.19187652500000 
 N -4.42715402187500 4.79565563125000 7.69112452500000 
 S -5.43268902187500 0.364655631250001 5.73368752500000 
 S -5.29800202187500 4.30061263125000 6.36065752500000 
 S -2.32010402187500 0.985364631250001 3.12016552500000 
 S -2.65956902187500 4.82240163125000 3.29210652500000 
 S -3.22685502187500 1.49875863125000 7.05858552500000 
 S -2.87783302187500 5.34221663125000 7.43266252500000 
