16

 C -3.25000516562500 1.37165970312500 5.83808420000000 
 C -2.94234816562500 4.87525770312500 5.70495620000000 
 C -4.48357316562500 0.883954703124996 5.28832420000000 
 C -4.14846516562500 4.50200670312500 5.02385920000000 
 N -2.26712716562500 1.47796170312500 4.95975320000000 
 N -1.97477216562500 5.21521570312500 4.80030020000000 
 N -4.52149316562500 0.596400703124996 4.00573020000000 
 N -4.09653316562500 4.47192870312499 3.70565720000000 
 N -4.83180116562500 1.41740470312500 7.87068220000000 
 N -4.80584416562500 4.76878070312500 7.39293620000000 
 S -5.79102616562500 1.14990670312500 6.50948320000000 
 S -5.60236316562500 4.43468070312499 6.02075520000000 
 S -2.89258016562500 0.995804703124996 3.50850320000000 
 S -2.54280616562500 4.96972870312500 3.25579120000000 
 S -3.17989416562500 1.73559970312500 7.51065720000000 
 S -3.19656616562500 5.08485770312500 7.41549820000000 
