16

 C -3.16076418125000 1.33906880937500 5.26471479062500 
 C -2.96150118125000 4.92764780937500 5.62882879062500 
 C -4.31559018125000 0.672766809375003 4.57824179062500 
 C -4.22576718125000 4.53009880937500 5.06264479062500 
 N -2.12582718125000 1.69618180937500 4.53771579062500 
 N -2.02181618125000 5.22633980937500 4.72500079062500 
 N -4.08716318125000 0.528257809375003 3.28763779062500 
 N -4.22433818125000 4.34146180937500 3.74266479062500 
 N -4.87703718125000 0.794270809375003 7.11894279062500 
 N -4.55507818125000 4.71548080937500 7.61967779062500 
 S -5.59644718125000 0.311546809375002 5.70806079062500 
 S -5.44562718125000 4.46975380937500 6.26193379062500 
 S -2.58848118125000 1.21220680937500 2.96881279062500 
 S -2.65675718125000 4.77098080937500 3.22481079062500 
 S -3.33731318125000 1.47715880937500 6.96174779062500 
 S -2.90995218125000 5.07971980937500 7.40833679062500 
