16

 C -2.92855406875000 1.26665627500000 5.45124801562500 
 C -2.90675706875000 5.09062127500000 5.68796101562500 
 C -4.09539806875000 0.710917275000003 4.72919401562500 
 C -4.17168306875000 4.68119127500000 5.16519101562500 
 N -1.87928406875000 1.35206527500000 4.64693201562500 
 N -1.89996006875000 5.16092927500000 4.82118301562500 
 N -3.86088506875000 0.574126275000003 3.44713601562500 
 N -4.14669306875000 4.54824727500000 3.83417201562500 
 N -4.82380206875000 0.942179275000003 7.21199301562500 
 N -4.47443806875000 4.81669227500000 7.68497801562500 
 S -5.43986406875000 0.425018275000003 5.74926601562500 
 S -5.29719006875000 4.25264027500000 6.34631801562500 
 S -2.27398406875000 0.890073275000002 3.07779501562500 
 S -2.64962606875000 4.85275227500000 3.36581501562500 
 S -3.27321106875000 1.56690627500000 7.10191501562500 
 S -2.93042306875000 5.37199727500000 7.36232101562500 
