16

 C -3.28601225625000 1.58305241562500 5.49296851875000 
 C -3.15342825625000 5.14132341562500 5.72381051875000 
 C -4.59975125625000 1.25066741562500 4.97605151875000 
 C -4.38668825625000 4.78873941562500 5.08749951875000 
 N -2.30914925625000 1.74414841562500 4.55294451875000 
 N -2.14207625625000 5.51835341562500 4.88431551875000 
 N -4.57321725625000 1.07648041562500 3.66481051875000 
 N -4.31035525625000 4.69376841562500 3.73062751875000 
 N -4.79477625625000 1.08326341562500 7.58603351875000 
 N -4.95678325625000 4.99467141562500 7.54567451875000 
 S -5.82438025625000 0.962076415625001 6.22787851875000 
 S -5.65552325625000 4.31855141562500 6.24496451875000 
 S -3.00192825625000 1.45983541562500 3.09463651875000 
 S -2.74215625625000 5.13017241562500 3.33601651875000 
 S -3.28529625625000 1.64606641562500 7.22456451875000 
 S -3.39070725625000 5.40390441562500 7.39557951875000 
