16

 C -3.06599398125000 1.47046581875000 5.63290254375000 
 C -3.32429398125000 5.08527681875000 5.28448354375000 
 C -4.27604598125000 1.03607781875000 4.85555454375000 
 C -4.46566998125000 4.49784481875000 4.62161954375000 
 N -2.00045198125000 1.62619581875000 4.84978554375000 
 N -2.20099698125000 5.13864581875000 4.56545054375000 
 N -4.06568898125000 0.777494818749999 3.55997754375000 
 N -4.17916098125000 4.02452981875000 3.41288354375000 
 N -5.08833698125000 1.22896881875000 7.35364754375000 
 N -5.25925998125000 5.27627881875000 6.95164954375000 
 S -5.75328998125000 1.01945681875000 5.83209654375000 
 S -5.91772298125000 4.59726581875000 5.60166854375000 
 S -2.52828798125000 1.16322981875000 3.32871454375000 
 S -2.61526398125000 4.48947081875000 3.10736654375000 
 S -3.42943998125000 1.75544881875000 7.35691254375000 
 S -3.61648298125000 5.46208181875000 6.98554054375000 
