16

 C -3.09175284062500 1.43790834062500 5.49303964375000 
 C -3.35695384062500 5.29504634062500 5.43130164375000 
 C -4.33561984062500 0.935428340624998 4.91111864375000 
 C -4.53046084062500 4.81411334062500 4.73205464375000 
 N -2.08742384062500 1.62032434062500 4.63936164375000 
 N -2.31708384062500 5.47726134062500 4.64112164375000 
 N -4.17788384062500 0.720158340624999 3.59931164375000 
 N -4.37597684062500 4.67787434062500 3.41918864375000 
 N -4.82777684062500 1.24430334062500 7.44624264375000 
 N -5.08693884062500 4.72948534062500 7.21602364375000 
 S -5.61034284062500 0.650634340624999 6.07335864375000 
 S -5.85131984062500 4.45347134062500 5.75491564375000 
 S -2.63527884062500 1.27869434062500 3.12822864375000 
 S -2.79710084062500 5.20775134062500 3.10360464375000 
 S -3.24637384062500 1.60949534062500 7.22291164375000 
 S -3.52912484062500 5.25155134062500 7.22676364375000 
