16

 C -3.01945136875000 1.26522748125000 5.65777526562500 
 C -3.06003436875000 5.15972448125000 5.35987226562500 
 C -4.21231436875000 0.802867481249999 4.94730426562500 
 C -4.15241736875000 4.30267248125000 4.94535426562500 
 N -2.00035336875000 1.39260548125000 4.82920226562500 
 N -2.00181936875000 5.26716548125000 4.53989426562500 
 N -4.06402836875000 0.588926481249999 3.65018126562500 
 N -3.94802736875000 3.80215548125000 3.71904126562500 
 N -4.78868236875000 0.921484481249999 7.53182926562500 
 N -4.82046336875000 5.18192648125000 7.26603726562500 
 S -5.57055836875000 0.695806481249999 6.05275026562500 
 S -5.38651636875000 4.18759348125000 6.11923026562500 
 S -2.41494236875000 1.01477648125000 3.30853026562500 
 S -2.50202836875000 4.43910748125000 3.16191926562500 
 S -3.21696036875000 1.62122648125000 7.41972826562500 
 S -3.32951736875000 5.75750248125000 7.00796426562500 
