16

 C -3.12221197812500 1.66209765937500 5.47942302187500 
 C -2.99690597812500 5.29489665937500 5.50556702187500 
 C -4.31522197812500 1.20868265937500 4.81272902187500 
 C -4.24242397812500 4.94354165937500 4.87418202187500 
 N -2.09127497812500 1.84411965937500 4.69848002187500 
 N -1.99130297812500 5.48087265937500 4.64305902187500 
 N -4.19021497812500 1.13248265937500 3.50841302187500 
 N -4.22558197812500 4.85556365937500 3.54408902187500 
 N -4.79297497812500 1.34214165937500 7.28568002187500 
 N -4.77149597812500 4.97304365937500 7.40451302187500 
 S -5.68314097812500 1.09939265937500 5.88746602187500 
 S -5.59331997812500 4.93239865937500 5.93760102187500 
 S -2.53222497812500 1.39108565937500 3.16998902187500 
 S -2.60930997812500 5.13315065937500 3.09897302187500 
 S -3.16391297812500 1.64820165937500 7.12461802187500 
 S -3.15732997812500 5.34692165937500 7.23791502187500 
