16

 C -3.34995768750000 1.44053256562500 5.52747160000000 
 C -3.40634068750000 5.17176456562500 5.11932860000000 
 C -4.63962068750000 0.935109565624998 4.92013260000000 
 C -4.52148468750000 4.44446256562500 4.57283460000000 
 N -2.36447568750000 1.63764156562500 4.66495560000000 
 N -2.36637368750000 5.38744256562500 4.32577060000000 
 N -4.48586468750000 0.634405565624999 3.63854860000000 
 N -4.34370068750000 4.24924956562500 3.27431260000000 
 N -4.97470568750000 1.22186056562500 7.44440060000000 
 N -5.10143868750000 4.75564556562500 7.04768260000000 
 S -5.91954768750000 0.779283565624998 6.08464660000000 
 S -5.73703668750000 3.95889656562500 5.68659460000000 
 S -2.94731068750000 1.05272056562500 3.24079460000000 
 S -2.79727468750000 4.70662056562500 2.89239660000000 
 S -3.37674468750000 1.68234856562500 7.21672660000000 
 S -3.53784968750000 5.35139256562500 6.82854060000000 
