16

 C -3.15373800625000 1.39244960937500 5.53163205937500 
 C -3.43741700625000 5.05775360937500 5.52654405937500 
 C -4.34646400625000 0.985395609375002 4.85322805937500 
 C -4.65777200625000 4.58832960937500 4.93495905937500 
 N -2.12166700625000 1.69885860937500 4.75758605937500 
 N -2.47963800625000 5.35397060937500 4.64623805937500 
 N -4.28059600625000 0.931519609375002 3.53704305937500 
 N -4.54765600625000 4.29362260937500 3.64270505937500 
 N -5.04952500625000 1.24767860937500 7.31174705937500 
 N -5.15133000625000 4.93655160937500 7.39617305937500 
 S -5.73575200625000 0.713703609375002 5.88628505937500 
 S -5.91071200625000 4.18350060937500 6.07420905937500 
 S -2.75363400625000 1.41404060937500 3.23134905937500 
 S -3.08109600625000 4.89337260937500 3.14548705937500 
 S -3.42008900625000 1.59215260937500 7.24378505937500 
 S -3.52806400625000 5.26848160937500 7.22962505937500 
