16

 C -3.05587984687500 1.24868512812500 5.42387809687500 
 C -3.04180284687500 5.19005712812500 5.51549709687500 
 C -4.17557884687500 0.680223128124997 4.74670509687500 
 C -4.32247784687500 4.92363412812500 4.89678909687500 
 N -2.06685284687500 1.70257312812500 4.60687409687500 
 N -2.04347284687500 5.26768812812500 4.65346109687500 
 N -4.05655384687500 0.561738128124997 3.44424309687500 
 N -4.21994484687500 4.71317812812500 3.57183209687500 
 N -4.98805684687500 0.913734128124997 7.20441209687500 
 N -4.56689084687500 5.05085512812500 7.47107909687500 
 S -5.56816084687500 0.472099128124997 5.64503209687500 
 S -5.55987284687500 4.99510212812500 6.17125609687500 
 S -2.54684584687500 1.23804012812500 3.06903409687500 
 S -2.58836784687500 4.99245612812500 3.12712609687500 
 S -3.38933584687500 1.40738412812500 7.18332409687500 
 S -2.98667484687500 5.37144312812500 7.20778209687500 
