16

 C -3.28018401875000 1.41082930000000 5.60993771250000 
 C -3.37251701875000 5.12776030000000 5.25723571250000 
 C -4.56482201875000 1.08351030000000 4.91874971250000 
 C -4.53938101875000 4.55499030000000 4.65239771250000 
 N -2.23421401875000 1.57207330000000 4.80182571250000 
 N -2.32577101875000 5.28917030000000 4.47808571250000 
 N -4.42872501875000 0.851656300000001 3.63255971250000 
 N -4.38926401875000 4.33526230000000 3.35448471250000 
 N -5.20153701875000 1.05336930000000 7.45709971250000 
 N -5.02329201875000 4.65265330000000 7.19993871250000 
 S -5.91262801875000 0.749334300000001 6.00718071250000 
 S -5.75871201875000 4.29255130000000 5.80823771250000 
 S -2.83292701875000 1.17896930000000 3.27297271250000 
 S -2.84457101875000 4.88650830000000 2.93233771250000 
 S -3.60227801875000 1.46034530000000 7.31710171250000 
 S -3.46836301875000 5.26970830000000 7.01798371250000 
