16

 C -3.33810580000000 1.15520240625000 5.51893678437500 
 C -3.14703680000000 5.03290640625000 5.31526878437500 
 C -4.46239480000000 0.604848406249999 4.80043078437500 
 C -4.38829380000000 4.65204940625000 4.59977678437500 
 N -2.30733380000000 1.43352140625000 4.69665978437500 
 N -2.04077080000000 4.97051240625000 4.59354178437500 
 N -4.33632080000000 0.538936406249999 3.48395578437500 
 N -4.15278380000000 4.36337840625000 3.33907078437500 
 N -5.41291780000000 1.17224040625000 7.06665378437500 
 N -5.01175280000000 5.36209240625000 7.07043078437500 
 S -5.90058980000000 0.227595406249999 5.76266978437500 
 S -5.78874280000000 4.82267840625000 5.70499178437500 
 S -2.80265480000000 0.955102406249998 3.19636078437500 
 S -2.45834280000000 4.53372140625000 3.10997778437500 
 S -3.82090480000000 1.59156140625000 7.20579878437500 
 S -3.40221580000000 5.54639840625000 6.99492578437500 
