16

 C -3.39710218750000 1.25455934687500 5.30472525000001 
 C -3.21094618750000 5.42231534687500 5.64271125000000 
 C -4.56453518750000 0.737771346874999 4.68568025000001 
 C -4.37286118750000 5.17408734687500 4.80988025000001 
 N -2.38926018750000 1.42153134687500 4.45313825000001 
 N -2.10271418750000 5.64976434687500 4.93284625000001 
 N -4.42669018750000 0.388157346874999 3.40884125000001 
 N -4.13380518750000 5.11664134687500 3.51233625000001 
 N -4.98893718750000 1.07553034687500 7.24333025000000 
 N -5.16772018750000 5.09855134687500 7.26933225000001 
 S -5.77916518750000 0.438430346874999 5.90252025000001 
 S -5.88830818750000 5.05643634687500 5.82066525000000 
 S -2.90811818750000 0.980790346875000 3.01478425000001 
 S -2.48926718750000 5.40034834687500 3.33027225000001 
 S -3.46587218750000 1.57521234687500 7.03266425000001 
 S -3.50078918750000 5.29844934687500 7.38820025000001 
