16

 C -3.29073951562500 0.916698900000001 5.39357485625000 
 C -3.21055351562500 4.97994290000000 5.60334685625000 
 C -4.56528551562500 0.700380900000001 4.74174285625000 
 C -4.47424151562500 4.57630090000000 4.96640185625000 
 N -2.21931151562500 1.12026690000000 4.60549485625000 
 N -2.27216951562500 5.21096490000000 4.73629285625000 
 N -4.51067751562500 0.795886900000001 3.40680285625000 
 N -4.38417951562500 4.36476490000000 3.65974485625000 
 N -5.00832951562500 0.602907900000001 7.34281485625000 
 N -5.01244151562500 4.59848290000000 7.44645385625000 
 S -5.86383451562500 0.382123900000001 5.91038885625000 
 S -5.86222951562500 4.44056190000000 5.99623485625000 
 S -2.82287851562500 0.976368900000001 3.09312685625000 
 S -2.82067551562500 4.88565790000000 3.21831585625000 
 S -3.35596751562500 0.801230900000001 7.14693485625000 
 S -3.32564951562500 4.80654090000000 7.33218685625000 
