16

 C -3.18022620000000 1.47199177187500 5.63947435312500 
 C -3.08411720000000 5.18212277187500 5.50994835312500 
 C -4.41061420000000 1.24849777187500 4.82901135312500 
 C -4.36014820000000 4.90129477187500 4.82784035312500 
 N -2.14307820000000 1.91538977187500 4.91748135312500 
 N -2.09276420000000 5.39415977187500 4.68058735312500 
 N -4.22192120000000 1.34044777187500 3.51854435312500 
 N -4.21154220000000 4.71608277187500 3.52131235312500 
 N -5.05832020000000 0.995782771875001 7.30780135312500 
 N -4.80964920000000 5.31817377187500 7.39568835312500 
 S -5.80455120000000 0.799268771875000 5.85850735312500 
 S -5.59458220000000 4.69983677187500 5.99427735312500 
 S -2.60755720000000 1.75074877187500 3.31429835312500 
 S -2.61619820000000 5.03676377187500 3.14474135312500 
 S -3.39984420000000 1.14621877187500 7.29857535312500 
 S -3.09496420000000 5.44323077187500 7.24227235312500 
