16

 C -3.07368254687500 1.62037688125000 5.66859095937500 
 C -3.04239354687500 5.32496988125000 5.73220995937500 
 C -4.16284354687500 0.945811881250002 5.06958795937500 
 C -4.31844354687500 4.97501388125000 5.13996895937500 
 N -1.99827854687500 1.79933788125000 4.93522295937500 
 N -2.01113454687500 5.39839088125000 4.89485095937500 
 N -3.87415554687500 0.532733881250002 3.84140995937500 
 N -4.24040054687500 4.68511588125000 3.84954895937500 
 N -4.83688154687500 1.41970888125000 7.56260095937500 
 N -4.90036554687500 5.24247588125000 7.53875495937500 
 S -5.52988254687500 0.780569881250002 6.15031795937500 
 S -5.68195454687500 4.85002888125000 6.16326395937500 
 S -2.36018354687500 1.20101588125000 3.37840095937500 
 S -2.65589854687500 5.01491688125000 3.38199195937500 
 S -3.30135954687500 2.04103188125000 7.35131695937500 
 S -3.31057654687500 5.58392288125000 7.42680795937500 
