16

 C -2.82621741250000 1.39072177812500 5.80058209062500 
 C -3.28086641250000 5.14238377812500 5.66457809062500 
 C -4.11154941250000 1.32116277812500 5.13960709062500 
 C -4.54307241250000 4.87795977812500 4.97092809062500 
 N -1.77044541250000 1.39072977812500 4.97508109062500 
 N -2.25781241250000 5.23546477812500 4.83186309062500 
 N -4.09027141250000 1.27660777812500 3.79029809062500 
 N -4.50699941250000 4.78820877812500 3.64626309062500 
 N -4.57817741250000 1.38838477812500 7.68286509062500 
 N -5.09717741250000 4.89225777812500 7.46543409062500 
 S -5.45140541250000 1.27235277812500 6.30035609062500 
 S -5.85731141250000 4.67336077812500 6.02222909062500 
 S -2.48633941250000 1.34238077812500 3.47247509062500 
 S -2.88145341250000 4.93991977812500 3.33071009062500 
 S -2.94781441250000 1.54041577812500 7.53972909062500 
 S -3.44281041250000 5.13000477812500 7.39059709062500 
