16

 C -2.99681337500000 1.54841853437500 5.73155094687500 
 C -3.08836137500001 4.63880353437500 5.54820494687500 
 C -4.29230637500001 1.10622653437500 5.10556394687500 
 C -4.35931237500001 4.32844953437500 4.85911994687500 
 N -1.96073737500001 1.68768153437500 4.88296694687500 
 N -2.03580037500000 4.68833553437500 4.70561794687500 
 N -4.18047537500000 0.938547534374996 3.79230294687500 
 N -4.25480737500000 4.17668853437500 3.53514494687500 
 N -4.81126637500001 1.50538753437500 7.57962594687500 
 N -4.86305837500000 4.52234053437500 7.35605894687500 
 S -5.65019837500000 1.21628653437500 6.17828594687500 
 S -5.73514137500000 4.20868953437500 5.95564594687500 
 S -2.62815537500000 1.22482553437500 3.42200594687500 
 S -2.63063837500001 4.43805453437500 3.17724594687500 
 S -3.12397337500000 1.71941953437500 7.44654594687500 
 S -3.22050437500001 4.68603053437500 7.29102294687500 
