16

 C -3.23873301562500 1.04837708125000 5.64208124062500 
 C -3.30355601562500 5.15606008125000 5.62556624062500 
 C -4.47570101562500 0.777222081250000 4.93949824062500 
 C -4.39939801562500 4.51945008125000 4.95503724062500 
 N -2.14424301562500 1.08626508125000 4.89028024062500 
 N -2.32715501562500 5.60767708125000 4.84003824062500 
 N -4.28484701562500 0.681403081250000 3.61928524062500 
 N -4.21321601562500 4.34174808125000 3.65790324062500 
 N -4.92335601562500 0.708721081250001 7.48736524062500 
 N -4.99069101562500 4.63633108125000 7.48815124062500 
 S -5.80898701562500 0.595269081250000 6.05333024062500 
 S -5.59931001562500 3.97039808125000 6.05950924062500 
 S -2.64035301562500 0.943323081250000 3.32174224062500 
 S -2.74920901562500 5.09794108125000 3.31849424062500 
 S -3.32371101562500 1.10901308125000 7.35166624062500 
 S -3.47030601562500 5.31651308125000 7.40849424062500 
