16

 C -3.35733904375000 1.40834791562500 5.53345468437500 
 C -2.98974104375000 5.14351191562500 5.71613068437500 
 C -4.62897904375000 1.12490691562500 4.88609868437500 
 C -4.31299804375000 4.96083691562500 5.18840668437500 
 N -2.31035904375000 1.69439691562500 4.71949468437500 
 N -2.01960004375000 5.19075191562500 4.79989068437500 
 N -4.56039804375000 1.26686591562500 3.54539668437500 
 N -4.38882104375000 4.85861591562500 3.87719868437500 
 N -5.20515604375000 1.39905091562500 7.39800268437500 
 N -4.64307904375000 5.27518591562500 7.71242768437500 
 S -5.92501204375000 0.859150915625001 5.94327068437500 
 S -5.63407604375000 4.97071691562500 6.37089168437500 
 S -2.95540004375000 1.54451591562500 3.21028968437500 
 S -2.78482404375000 5.00503891562500 3.34887168437500 
 S -3.59875304375000 1.75670191562500 7.23403068437500 
 S -3.01784104375000 5.30379991562500 7.49155468437500 
