16

 C -3.05323586875000 1.25515786250000 5.75296159375000 
 C -2.92139386875000 4.77207486250000 5.43976059375000 
 C -4.42412586875000 1.06811286250000 5.29660459375000 
 C -4.20248586875000 4.62361886250000 4.80564959375000 
 N -2.14810386875000 0.992876862499998 4.81011559375000 
 N -1.84846386875000 4.82513786250000 4.65472759375000 
 N -4.57450286875000 0.608271862499997 4.09006959375000 
 N -4.11719286875000 4.62827586250000 3.44976459375000 
 N -4.64154186875000 1.74377686250000 7.69334659375000 
 N -4.65495686875000 4.55706686250000 7.42962359375000 
 S -5.63327486875000 1.24914386250000 6.51266659375000 
 S -5.49303986875000 4.46712586250000 5.94434559375000 
 S -3.03004686875000 0.609549862499996 3.43401759375000 
 S -2.45694686875000 4.76829586250000 3.13884059375000 
 S -3.03040586875000 1.80901886250000 7.42683659375000 
 S -2.98155686875000 4.89204286250000 7.17812559375000 
