16

 C -3.18710810937500 1.27229192812500 5.33353317500000 
 C -2.84283310937501 5.30962092812500 5.63230317500000 
 C -4.38665210937500 0.759514928125005 4.64597217500000 
 C -4.16734110937501 5.03489392812500 5.12922417500000 
 N -2.13593110937500 1.63217092812500 4.63546717500000 
 N -1.93623810937501 5.31004992812500 4.63527717500000 
 N -4.15725110937501 0.713925928125005 3.33841217500000 
 N -4.31842610937501 4.92398492812500 3.83112317500000 
 N -4.82952810937500 0.814663928125005 7.20300917500000 
 N -4.63050010937500 4.88953392812500 7.62544717500000 
 S -5.65260710937500 0.265537928125005 5.82501817500000 
 S -5.51790610937501 4.88968292812500 6.16942717500000 
 S -2.59364710937500 1.44179492812500 3.08706617500000 
 S -2.80252910937500 5.03991192812500 3.21288417500000 
 S -3.38255010937501 1.54774692812500 7.01449117500000 
 S -2.98149910937500 5.45191592812500 7.41082917500000 
