16

 C -3.11700561875000 1.50361660312500 5.43804328437500 
 C -3.27594561875000 5.09890160312500 5.57084728437500 
 C -4.29283861875000 1.00854960312500 4.89167128437500 
 C -4.44943361875000 4.59153960312500 4.87765028437500 
 N -2.11528561875000 1.65697260312500 4.55668828437500 
 N -2.23957261875000 5.35285060312500 4.78112028437500 
 N -4.21704161875000 0.708445603124997 3.58468728437500 
 N -4.31293461875000 4.63237060312500 3.54195028437500 
 N -4.67992261875000 1.11882560312500 7.44714428437500 
 N -5.00038361875000 4.87041860312500 7.46241228437500 
 S -5.60827261875000 0.995468603124997 6.05284028437500 
 S -5.75504961875000 4.35809860312500 6.03141428437500 
 S -2.67677161875000 1.09385060312500 3.12177328437500 
 S -2.71761261875000 5.09959760312500 3.27112328437500 
 S -3.16556461875000 1.69038360312500 7.12293828437500 
 S -3.30274161875000 5.05637160312500 7.30008928437500 
