16

 C -2.75525417500000 1.67888050937500 5.38069049062500 
 C -3.40551717500000 5.09501250937500 5.58187749062500 
 C -3.80275317500000 0.857428509375002 4.76841449062500 
 C -4.50800217500000 4.41398050937500 4.94347749062500 
 N -1.82112617500000 2.11390850937500 4.53013449062500 
 N -2.43033917500000 5.50578650937500 4.76871749062500 
 N -3.70212717500000 0.793313509375002 3.42584949062500 
 N -4.37291317500000 4.38763450937500 3.61605749062500 
 N -4.38069917500000 1.13185250937500 7.33214349062500 
 N -5.21088517500000 4.58758450937500 7.44182349062500 
 S -5.07370717500000 0.470936509375002 5.97579049062500 
 S -5.85837717500000 3.97016450937500 5.98064049062500 
 S -2.33819917500000 1.64662450937500 3.00570549062500 
 S -2.95684617500000 5.11699050937500 3.17106949062500 
 S -2.99585817500000 1.98836950937500 7.06841349062500 
 S -3.71751217500000 5.22912150937500 7.31136449062500 
