16

 C -3.08791546250000 1.36850858125000 5.46215000937500 
 C -3.34008146250000 5.31648158125000 5.17961300937500 
 C -4.28253446250000 0.800264581249999 4.88994000937500 
 C -4.35096446250000 4.40619758125000 4.65120200937500 
 N -2.10154946250000 1.65222958125000 4.63267900937500 
 N -2.35315646250000 5.53978258125000 4.32481100937500 
 N -4.17143246250000 0.543956581249999 3.57768400937500 
 N -4.11835846250000 3.93786058125000 3.44962500937500 
 N -4.78994346250000 1.22458558125000 7.40038400937500 
 N -5.17239746250000 4.94700358125000 6.97981700937500 
 S -5.57946646250000 0.647281581249999 5.99507500937500 
 S -5.75492946250000 4.09984958125000 5.65011600937500 
 S -2.60091046250000 1.10955358125000 3.17757900937500 
 S -2.65198146250000 4.67828258125000 2.90024800937500 
 S -3.20964446250000 1.74929958125000 7.11947000937500 
 S -3.74699146250000 5.72769558125000 6.84450400937500 
