16

 C -3.40125938750000 1.45919421875000 5.76485128125000 
 C -3.29081738750000 5.19749221875000 5.40685828125000 
 C -4.45995938750000 0.868833218750000 4.96313928125000 
 C -4.48501538750000 4.70304521875000 4.78864628125000 
 N -2.25555238750000 1.54791321875000 5.05895828125000 
 N -2.32941838750000 5.36672221875000 4.50779728125000 
 N -4.15317038750000 0.673623218750000 3.66371728125000 
 N -4.49509338750000 4.58164921875000 3.48039028125000 
 N -5.37043338750000 1.02230021875000 7.40191428125000 
 N -5.02931938750000 4.91043821875000 7.32986628125000 
 S -5.94141038750000 0.585945218750000 5.91420728125000 
 S -5.77919538750000 4.42431521875000 5.89055328125000 
 S -2.56945838750000 1.18006921875000 3.46868728125000 
 S -2.94414738750000 4.98899021875000 3.01999728125000 
 S -3.84484438750000 1.55585221875000 7.50670328125000 
 S -3.42210038750000 5.29786321875000 7.16576428125000 
