16

 C -3.28555621875000 1.33442036562500 5.36090064062500 
 C -3.20921021875000 5.43513436562500 5.62167964062500 
 C -4.41653821875000 0.635406365624999 4.81439764062500 
 C -4.39778421875000 4.79016736562500 5.02054664062500 
 N -2.18006121875000 1.29874736562500 4.62534764062500 
 N -2.16808021875000 5.53147036562500 4.84127464062500 
 N -4.19953121875000 0.130005365624999 3.60831364062500 
 N -4.21433321875000 4.46560936562500 3.77812764062500 
 N -5.04455221875000 1.59606236562500 7.10597264062500 
 N -4.99657721875000 5.18966336562500 7.46224464062500 
 S -5.71989621875000 0.542248365624999 6.01320464062500 
 S -5.73015521875000 4.48494936562500 6.13528964062500 
 S -2.59716721875000 0.536363365624999 3.19583464062500 
 S -2.68035321875000 4.81843636562500 3.37801864062500 
 S -3.48867921875000 2.02204736562500 6.88686564062500 
 S -3.39467221875000 5.72303436562500 7.37603964062500 
