16

 C -3.22859303437500 1.46628724062500 5.46669312187500 
 C -3.25103803437500 5.05837924062500 5.67301312187500 
 C -4.48625303437500 1.04321724062500 4.91348912187500 
 C -4.34635003437500 4.35980924062500 5.02134412187500 
 N -2.20608603437500 1.54562624062500 4.65183212187500 
 N -2.19428403437500 5.23417524062500 4.85956312187500 
 N -4.40291003437500 0.856855240625000 3.60520812187500 
 N -4.24373603437500 4.21926224062500 3.68591312187500 
 N -4.90206203437500 1.45062224062500 7.42877912187500 
 N -4.87701803437500 4.71523924062500 7.52151512187500 
 S -5.79768503437500 0.913347240625001 6.01589812187500 
 S -5.59451103437500 4.25002224062500 6.16080312187500 
 S -2.85388303437500 1.27561024062500 3.12549912187500 
 S -2.66274603437500 4.71286624062500 3.37193412187500 
 S -3.26612903437500 1.72601924062500 7.17026712187500 
 S -3.36365403437500 5.33156024062500 7.36134112187500 
