16

 C -2.97531247187500 1.43930926562500 5.46811813125000 
 C -3.26472447187500 5.29408526562500 5.45892413125000 
 C -4.25780747187500 0.914255265624999 4.87825913125000 
 C -4.44178347187500 4.82652426562500 4.77669613125000 
 N -2.04629147187500 1.69979626562500 4.54888613125000 
 N -2.23593747187500 5.61432226562500 4.68457713125000 
 N -4.28037547187500 0.860506265624999 3.54474313125000 
 N -4.27073847187500 4.66384126562500 3.48071213125000 
 N -4.67789447187500 1.19681526562500 7.32805313125000 
 N -5.14452247187500 4.67247026562500 7.23839113125000 
 S -5.47838547187500 0.704681265624999 5.97949913125000 
 S -5.83395247187500 4.41726026562500 5.72519113125000 
 S -2.76382147187500 1.22093026562500 3.10306313125000 
 S -2.76392447187500 5.15309426562500 3.10820913125000 
 S -3.06781847187500 1.62319426562500 7.14992613125000 
 S -3.54128647187500 5.22105626562500 7.19273413125000 
