16

 C -3.25914428437500 1.52533990312500 5.61567765000000 
 C -3.49622928437500 5.34674690312500 5.58845265000000 
 C -4.47171328437500 1.03189290312500 5.06021465000000 
 C -4.55037828437500 4.57064890312500 5.01801065000000 
 N -2.24948128437500 1.76481490312500 4.72019765000000 
 N -2.47817728437500 5.71134790312500 4.75522765000000 
 N -4.40965028437500 0.922525903125001 3.74627465000000 
 N -4.41658328437500 4.51317990312500 3.68074765000000 
 N -4.92664628437500 1.11352990312500 7.59825265000000 
 N -5.22418328437500 4.74589290312500 7.51973165000000 
 S -5.77934128437500 0.759217903125001 6.20227265000000 
 S -5.90049828437500 4.28014490312500 6.06088265000000 
 S -2.97463628437500 1.49055290312500 3.18289965000000 
 S -2.97481328437500 5.16088190312500 3.25803865000000 
 S -3.37504328437500 1.50698390312500 7.34322265000000 
 S -3.68155628437500 5.42951890312500 7.34225065000000 
