16

 C -3.30507517500000 0.954707328124993 5.45191266562500 
 C -3.25903717500000 5.18522532812499 5.42941266562500 
 C -4.52449017500000 0.718252328124994 4.73728166562500 
 C -4.39102417500000 4.59948832812499 4.74532366562500 
 N -2.20582817500000 1.12903932812499 4.68600966562500 
 N -2.25338117500000 5.50464832812499 4.59749066562500 
 N -4.35630717500000 0.641844328124994 3.40086266562500 
 N -4.29037617500000 4.56135432812499 3.45097266562500 
 N -5.15848817500000 0.771541328124993 7.26116766562500 
 N -5.11081617500000 4.60888832812499 7.17770866562500 
 S -5.94613517500000 0.514416328124994 5.80283666562500 
 S -5.59958617500000 3.95152132812499 5.71618266562500 
 S -2.70386317500000 0.915991328124993 3.14913966562500 
 S -2.79763917500000 5.18218132812499 3.02977466562500 
 S -3.51939617500000 0.986752328124993 7.14258166562500 
 S -3.61233317500000 5.39028032812499 7.11914766562500 
