16

 C -2.87278748750000 1.23596823437500 5.50662225312500 
 C -2.94597348750000 5.01208823437500 5.68778325312500 
 C -4.09146548750000 0.693934234375000 4.80523125312500 
 C -4.18174848750000 4.52588323437500 5.10612925312500 
 N -1.79789648750000 1.32430223437500 4.70502925312500 
 N -1.96077848750000 5.20616523437500 4.81605525312500 
 N -3.87537148750000 0.441207234375000 3.51313325312500 
 N -4.09720048750000 4.47576023437500 3.76243525312500 
 N -4.86110448750000 1.17574223437500 7.19928525312500 
 N -4.57868248750000 4.86874723437500 7.67079425312500 
 S -5.49325548750000 0.516464234374999 5.77104025312500 
 S -5.40698248750000 4.24772623437500 6.35387025312500 
 S -2.30275748750000 0.855787234375000 3.22618225312500 
 S -2.51075248750000 4.87514423437500 3.29739925312500 
 S -3.26963348750000 1.63829023437500 7.16289625312500 
 S -3.03534548750000 5.40552723437500 7.40943625312500 
