16

 C -3.17121541250000 0.935012193749997 5.59735831562500 
 C -2.94067041250000 5.09426119375000 5.59915531562500 
 C -4.33124641250000 0.519006193749997 4.86526731562500 
 C -4.11066841250000 4.54752819375000 4.95209431562500 
 N -2.08957041250000 1.21097919375000 4.83739531562500 
 N -1.91280341250000 5.25986519375000 4.79351731562500 
 N -4.13602841250000 0.501475193749997 3.51206731562500 
 N -4.01549541250000 4.48192419375000 3.62072031562500 
 N -5.14265541250000 1.05191419375000 7.35662131562500 
 N -4.71746741250000 4.77770519375000 7.45192131562500 
 S -5.82967641250000 0.394613193749997 6.01447831562500 
 S -5.47264441250000 4.27421919375000 6.07328031562500 
 S -2.53976941250000 0.825482193749997 3.26616931562500 
 S -2.40171541250000 4.84337719375000 3.26079431562500 
 S -3.50522541250000 1.27378019375000 7.31330331562500 
 S -3.16046941250000 5.34714619375000 7.27503331562500 
