16

 C -3.29688025312500 1.44540079375000 5.29069479375000 
 C -3.09071525312500 5.05410379375000 5.42963679375000 
 C -4.39200325312500 0.837212793750001 4.63807979375000 
 C -4.28981025312500 4.51161279375000 4.85375279375000 
 N -2.21579325312500 1.52105979375000 4.53787779375000 
 N -1.96428925312500 4.91153579375000 4.71793279375000 
 N -4.20462525312500 0.615123793750002 3.35861979375000 
 N -4.07502525312500 4.10396679375000 3.61345279375000 
 N -5.07955725312500 1.02532079375000 7.08932179375000 
 N -4.89037225312500 4.92498979375000 7.30591179375000 
 S -5.71713325312500 0.475849793750001 5.65298279375000 
 S -5.64278125312500 4.47846779375000 5.88744179375000 
 S -2.58563725312500 0.914224793750002 3.03146979375000 
 S -2.48780525312500 4.27163679375000 3.27474979375000 
 S -3.57493925312500 1.69687779375000 6.99407679375000 
 S -3.32994225312500 5.46464379375000 7.07753879375000 
