16

 C -3.37273703437500 1.42711568750000 5.50606293437500 
 C -3.34264303437500 5.05165768750000 5.18846393437500 
 C -4.60055703437500 0.958497687500002 4.90952793437500 
 C -4.47095003437500 4.43252768750000 4.55637293437500 
 N -2.37395903437500 1.63959968750000 4.66516193437500 
 N -2.37496103437500 5.36238568750000 4.34307293437500 
 N -4.52293303437500 0.679868687500002 3.59699493437500 
 N -4.27282503437500 4.11398868750000 3.28196893437500 
 N -5.03598703437500 1.34015868750000 7.51292293437500 
 N -5.04985103437500 4.80386968750000 7.03338593437500 
 S -5.90051203437500 0.820513687500002 6.11542193437500 
 S -5.69993503437500 3.94368468750000 5.71384393437500 
 S -2.90047703437500 1.05075868750000 3.20029593437500 
 S -2.78351703437500 4.69201168750000 2.86099093437500 
 S -3.36377303437500 1.69958368750000 7.22266493437500 
 S -3.54926203437500 5.43585768750000 6.80389893437500 
