16

 C -3.77099138125000 1.12717816562500 5.65128112500000 
 C -3.08227138125000 5.01529316562500 5.30446112500000 
 C -4.86444538125000 0.517929165625000 4.94255312500000 
 C -4.30956438125000 4.40175516562500 4.82355312500000 
 N -2.73199138125000 1.49973816562500 4.87826012500000 
 N -2.05636338125000 5.10879116562500 4.46668912500000 
 N -4.67985338125000 0.536792165625001 3.61462112500000 
 N -4.24663338125000 4.23471316562500 3.51684412500000 
 N -5.60006338125000 0.669516165625001 7.41901412500000 
 N -4.75704138125000 5.01532416562500 7.30965912500000 
 S -6.18071338125000 0.181767165625001 5.97689212500000 
 S -5.55594938125000 4.24913516562500 6.06905112500000 
 S -3.11428338125000 1.14048616562500 3.28399912500000 
 S -2.67306138125000 4.51476516562500 3.01061512500000 
 S -4.06454238125000 1.19522616562500 7.41006312500000 
 S -3.16596338125000 5.46197516562500 6.97604612500000 
