16

 C -3.36892607500000 1.32942727812500 5.36535714375000 
 C -3.21577207500000 5.47333627812500 5.69228714375000 
 C -4.50298807500000 0.653926278125001 4.72788414375000 
 C -4.39920907500000 5.11464227812500 4.93446514375000 
 N -2.32088907500000 1.53315927812500 4.56601514375000 
 N -2.05458907500000 5.60650827812500 5.02553614375000 
 N -4.36506707500000 0.456100278125001 3.43280914375000 
 N -4.08991707500000 5.08007227812500 3.63550214375000 
 N -5.11538807500000 1.12190327812500 7.22613514375000 
 N -5.13207607500000 5.14563227812500 7.35127414375000 
 S -5.76275607500000 0.418996278125000 5.87551014375000 
 S -5.89381307500000 5.07699327812500 5.87129714375000 
 S -2.85664807500000 1.03933127812500 3.03866314375000 
 S -2.47669507500000 5.40033727812500 3.41129914375000 
 S -3.47486307500000 1.52714727812500 7.02239714375000 
 S -3.50671007500000 5.40771027812500 7.35151614375000 
