16

 C -2.88716413750000 1.35610715312500 5.58739667500000 
 C -3.08380913750000 5.11884815312500 5.17913567500000 
 C -4.09739813750000 0.994373153124998 4.83403167500000 
 C -4.37744113750000 4.85778915312500 4.56335167500000 
 N -1.81451413750000 1.45366515312500 4.85022067500000 
 N -2.09773813750000 5.21043715312500 4.28714067500000 
 N -3.89015613750000 0.729738153124998 3.54244567500000 
 N -4.30173913750000 4.50665415312500 3.27895167500000 
 N -4.93159313750000 1.55960115312500 7.25170467500000 
 N -4.71553013750000 4.93970315312500 7.07917167500000 
 S -5.56742613750000 0.857160153124998 5.84500867500000 
 S -5.61736013750000 4.81330215312500 5.74449967500000 
 S -2.31232913750000 0.922602153124998 3.24693467500000 
 S -2.71763213750000 4.83172915312500 2.82410667500000 
 S -3.28004513750000 1.62276215312500 7.26327367500000 
 S -3.12690213750000 5.35416515312500 6.89393367500000 
