16

 C -2.88782505937500 1.21876366875000 5.49375338125000 
 C -3.04965005937500 5.20886266875000 5.64027238125000 
 C -4.11674805937500 0.945420668749997 4.78560338125000 
 C -4.17707205937500 4.57931666875000 4.94906838125000 
 N -1.79587205937500 1.28628166875000 4.70904038125000 
 N -1.98545805937500 5.39607266875000 4.86066538125000 
 N -3.96941105937500 0.678098668749997 3.48335838125000 
 N -3.98721205937500 4.32998166875000 3.65968238125000 
 N -4.64556805937500 1.17796566875000 7.31497938125000 
 N -4.71845705937500 4.75924766875000 7.51812138125000 
 S -5.41493505937500 0.806254668749998 5.92274138125000 
 S -5.49480405937500 4.28555166875000 6.09963138125000 
 S -2.35472005937500 1.12947866875000 3.14251738125000 
 S -2.40619805937500 4.93837766875000 3.33953638125000 
 S -3.00572405937500 1.43049766875000 7.19101738125000 
 S -3.21017805937500 5.40087166875000 7.33894338125000 
