16

 C -2.83375681250000 1.34289869375000 5.69730772812500 
 C -3.10027881250000 4.80508369375000 5.43204572812500 
 C -3.96824081250000 0.688354693750001 5.17589972812500 
 C -4.32536081250000 4.32257369375000 4.89175072812500 
 N -1.76810181250000 1.45605269375000 4.88451272812500 
 N -2.02691581250000 4.77527569375000 4.60728572812500 
 N -3.82793281250000 0.257553693750000 3.93643972812500 
 N -4.23124281250000 4.14710969375000 3.56846772812500 
 N -4.65700581250000 1.54275669375000 7.56244072812500 
 N -4.84229481250000 5.04689469375000 7.33502372812500 
 S -5.41537081250000 0.870436693750000 6.29291072812500 
 S -5.66877981250000 4.66651769375000 5.98719472812500 
 S -2.32210281250000 0.812553693750001 3.37089672812500 
 S -2.66280081250000 4.48161669375000 3.07804772812500 
 S -3.05983681250000 1.89671369375000 7.39926772812500 
 S -3.23792481250000 5.33723369375000 7.07065472812500 
