16

 C -2.84597502500000 1.15668017500000 5.47559092187500 
 C -3.02347302500000 5.11779917500000 5.62339092187500 
 C -4.10900702500000 0.934085175000000 4.82065592187500 
 C -4.20570502500000 4.61671917500000 4.99510092187500 
 N -1.84978102500000 1.29395917500000 4.67853992187500 
 N -1.97271702500000 5.43840617500000 4.88245492187500 
 N -4.01415402500000 0.766007174999999 3.52143492187500 
 N -3.95762802500000 4.41301817500000 3.69303992187500 
 N -4.55694702500000 1.23358117500000 7.26680392187500 
 N -4.76862402500000 4.81981817500000 7.48035892187500 
 S -5.40000102500000 0.850286174999999 5.90228192187500 
 S -5.50666602500000 4.25056017500000 6.10129692187500 
 S -2.39326802500000 1.19437717500000 3.16328192187500 
 S -2.43790502500000 4.93883817500000 3.37528992187500 
 S -2.94342102500000 1.49479517500000 7.14580392187500 
 S -3.21722002500000 5.40225617500000 7.30613492187500 
