16

 C -3.04588070937499 1.26913176250001 5.52625095937500 
 C -3.22780670937499 5.05643176250000 5.46001895937500 
 C -4.33388570937499 1.05846776250000 4.84528995937500 
 C -4.46488570937499 4.65518676250000 4.85564495937500 
 N -1.99945570937499 1.27469276250001 4.69796195937500 
 N -2.18183970937499 4.98488176250000 4.67489195937500 
 N -4.28997170937499 0.894338762500005 3.50691395937500 
 N -4.37805870937499 4.38778676250000 3.55267495937500 
 N -4.95466970937499 1.42777376250000 7.34850895937500 
 N -5.04097370937499 5.13729676250001 7.31692495937500 
 S -5.71415070937499 1.51314776250000 5.89581995937500 
 S -5.81850270937499 4.49627676250000 6.02149395937500 
 S -2.64850470937499 0.992189762500005 3.18684295937500 
 S -2.70851670937499 4.56876776250001 3.22194995937500 
 S -3.28708070937499 1.46835076250001 7.30450295937500 
 S -3.41968770937499 5.54790576250000 7.12303495937500 
