16

 C -2.91607597500000 1.26301742812500 5.66484712187500 
 C -2.90854897500000 4.85606742812500 5.41479912187500 
 C -4.26957797500000 1.16462142812500 5.11528412187500 
 C -4.18503897500000 4.61227942812500 4.76428312187500 
 N -1.94580197500000 1.08972542812500 4.81960412187500 
 N -1.82972397500000 4.82712542812500 4.63318812187500 
 N -4.25227397500000 0.859014428125002 3.82950612187500 
 N -3.97165797500000 4.34689042812500 3.47944812187500 
 N -4.51041697500000 1.47377342812500 7.63043812187500 
 N -4.77183997500000 4.81857542812500 7.28544312187500 
 S -5.47702497500000 1.47794442812500 6.31504912187500 
 S -5.56613797500000 4.46292742812500 5.78094312187500 
 S -2.65636697500000 0.626590428125002 3.39581112187500 
 S -2.34631497500000 4.39505042812500 3.09175212187500 
 S -2.90437397500000 1.57085842812500 7.43214512187500 
 S -3.12431097500000 4.96780242812500 7.16412312187500 
