16

 C -2.86992743750000 1.36272228437500 5.67929542187500 
 C -3.04833243750000 4.75943128437500 5.41452042187500 
 C -4.01503943750000 0.782710284374998 5.15006442187500 
 C -4.32015043750000 4.45939528437500 4.79491542187500 
 N -1.92128843750000 1.53567728437500 4.75464142187500 
 N -2.02037443750000 4.82655428437500 4.53302742187500 
 N -3.94766643750000 0.363651284374998 3.91151342187500 
 N -4.24642643750000 4.07723328437500 3.51976542187500 
 N -4.69227143750000 1.49359828437500 7.53162742187500 
 N -4.87852443750000 5.10855628437500 7.19927742187500 
 S -5.36703443750000 0.791903284374999 6.14441242187500 
 S -5.65772543750000 4.53013428437500 5.80983942187500 
 S -2.46132043750000 0.799718284374999 3.39615242187500 
 S -2.68954043750000 4.38043928437500 3.07039642187500 
 S -3.07174543750000 1.85665828437500 7.34559242187500 
 S -3.19509043750000 5.40467228437500 7.09003742187500 
