16

 C -3.13612987500000 1.44067575000000 5.63832148125000 
 C -2.86375687500000 5.24603975000000 5.44980348125000 
 C -4.43082987500000 1.12073875000000 5.01104248125000 
 C -4.07868787500000 4.86866075000000 4.81109748125000 
 N -2.07080987500000 1.50111275000000 4.85789448125000 
 N -1.84744487500000 5.38867175000000 4.54464248125000 
 N -4.32362887500000 1.06511975000000 3.68734348125000 
 N -4.12238187500000 4.75843775000000 3.46930048125000 
 N -4.79442187500000 1.54349775000000 7.53268648125000 
 N -4.69216287500000 5.05913975000000 7.36668048125000 
 S -5.67642687500000 0.862849750000002 6.27097548125000 
 S -5.42255787500000 4.55272175000000 5.85043048125000 
 S -2.70242987500000 1.44375575000000 3.32184448125000 
 S -2.58258287500000 5.15245775000000 3.04118348125000 
 S -3.16991887500000 1.78107575000000 7.33952348125000 
 S -3.05530987500000 5.41135575000000 7.24258048125000 
