16

 C -3.15415421250000 1.14198277187500 5.47589715312500 
 C -3.08440721250000 5.42680677187500 5.63850915312500 
 C -4.44351721250000 0.787299771875005 4.90899915312500 
 C -4.27916321250000 4.96503577187500 4.95468215312500 
 N -2.15193021250000 1.39935777187500 4.64325415312500 
 N -2.13670521250000 5.91048377187500 4.84944915312500 
 N -4.35785421250000 0.659162771875005 3.58696115312500 
 N -4.14149121250000 4.83606477187500 3.65850815312500 
 N -5.00428221250000 0.921800771875005 7.42478815312500 
 N -4.82049221250000 4.74123677187500 7.44619215312500 
 S -5.79275621250000 0.460677771875004 6.03768715312500 
 S -5.53528021250000 4.34499177187500 6.00474515312500 
 S -2.79041321250000 1.10255677187500 3.13260315312500 
 S -2.65252521250000 5.59870877187500 3.30176115312500 
 S -3.34607521250000 1.23717177187500 7.25638415312500 
 S -3.36547521250000 5.45786477187500 7.36236115312500 
