16

 C -3.17840829375000 1.28952628125000 5.36598127500000 
 C -2.84287729375000 5.18563028125000 5.79017327500000 
 C -4.37612729375000 0.917111281250003 4.67637427500000 
 C -4.08015329375000 4.79504428125000 5.15606127500000 
 N -2.12848629375000 1.59853528125000 4.62956427500000 
 N -1.74809329375000 5.27731128125000 5.00701627500000 
 N -4.24451629375000 0.963606281250003 3.37090327500000 
 N -3.92230829375000 4.60644328125000 3.85274127500000 
 N -4.83887029375000 0.835374281250003 7.20454227500000 
 N -4.71232729375000 5.05313528125000 7.58768127500000 
 S -5.65529229375000 0.408216281250003 5.75498127500000 
 S -5.35336729375000 4.31568228125000 6.24519827500000 
 S -2.70449129375000 1.49166928125000 3.11917727500000 
 S -2.35124629375000 4.93821928125000 3.49078827500000 
 S -3.21619429375000 1.21378828125000 7.10722727500000 
 S -3.11660029375000 5.38405528125000 7.48558227500000 
