16

 C -3.06917537500000 1.45306399687500 5.44588792500000 
 C -3.33759437500000 5.35084199687500 5.47978792500000 
 C -4.23249137500000 0.916771996875004 4.89770892500000 
 C -4.47716537500000 4.81688999687500 4.75995092500000 
 N -2.06127737500000 1.64766999687500 4.61218892500000 
 N -2.29136637500000 5.50858099687500 4.64488592500000 
 N -4.21761137500000 0.784133996875004 3.57409592500000 
 N -4.31747037500000 4.67081499687500 3.44349092500000 
 N -4.76449937500000 1.22590399687500 7.38475692500000 
 N -5.12243137500000 4.69707599687500 7.20333492500000 
 S -5.56697637500000 0.670822996875004 6.04710292500000 
 S -5.85277737500000 4.44293199687500 5.73386792500000 
 S -2.70534237500000 1.25408999687500 3.13956892500000 
 S -2.79599537500000 5.18831499687500 3.09677592500000 
 S -3.17151837500000 1.61352399687500 7.18717992500000 
 S -3.52803537500000 5.23936199687500 7.22825092500000 
