16

 C -3.26240835312500 1.36413541875000 5.64192519687500 
 C -3.15173335312500 5.33492941875000 5.52646219687500 
 C -4.50629235312500 1.26891041875000 4.95563419687500 
 C -4.34923735312500 4.93840741875000 4.83288819687500 
 N -2.16898335312500 1.32898441875000 4.89336019687500 
 N -2.11542735312500 5.59835441875000 4.72565619687500 
 N -4.42427135312500 1.21468141875000 3.61493819687500 
 N -4.14504335312500 4.71057941875000 3.51056119687500 
 N -5.01936635312500 0.968072418750001 7.57483119687500 
 N -4.88737035312500 4.89223741875000 7.36189819687500 
 S -5.80794735312500 1.03165341875000 6.12665119687500 
 S -5.71424035312500 4.57564441875000 5.89861819687500 
 S -2.76029035312500 1.31724341875000 3.30866019687500 
 S -2.57076735312500 5.10485541875000 3.18231019687500 
 S -3.39943035312500 1.38275141875000 7.43111519687500 
 S -3.35371935312500 5.52842541875000 7.22258419687500 
