16

 C -3.12976470937500 1.02104704062500 5.44093238125000 
 C -2.81068870937500 5.13594504062500 5.45357838125000 
 C -4.44841770937500 0.705187040624999 4.94389238125000 
 C -3.99178670937500 4.78451004062500 4.68639138125000 
 N -2.21947570937500 1.16273504062500 4.47352038125000 
 N -1.74137170937500 5.32795204062500 4.69905038125000 
 N -4.48789070937500 0.482027040624999 3.63988138125000 
 N -3.77482970937500 4.76646204062500 3.37389438125000 
 N -4.80713970937500 1.21158204062500 7.49866638125000 
 N -4.72462770937500 4.95957704062500 7.15273638125000 
 S -5.68944070937500 0.717831040624999 6.17799038125000 
 S -5.42226470937500 4.66622704062500 5.69060138125000 
 S -2.95927270937500 0.769930040624999 3.04137338125000 
 S -2.19485670937500 5.16471504062500 3.08436638125000 
 S -3.20573370937500 1.45818104062500 7.12512738125000 
 S -3.06795970937500 5.24786704062500 7.20417238125000 
