16

 C -2.94914450312500 1.30088300312500 5.66704143750000 
 C -2.92058450312500 4.99696800312500 5.42550343750000 
 C -4.17974350312500 0.927951003124998 5.06567143750000 
 C -4.17113250312500 4.36169700312500 4.92910643750000 
 N -1.93049450312500 1.43069600312500 4.83750843750000 
 N -1.99271250312500 5.22638800312500 4.50688143750000 
 N -4.12122850312500 0.684222003124998 3.79014443750000 
 N -3.99740950312500 3.88901800312500 3.72908243750000 
 N -4.78929850312500 1.04303800312500 7.48248143750000 
 N -4.75960450312500 5.15431100312500 7.24575943750000 
 S -5.54025350312500 0.805523003124998 6.09105443750000 
 S -5.43701450312500 4.17308700312500 6.04303843750000 
 S -2.56606150312500 0.980399003124998 3.34831843750000 
 S -2.51351650312500 4.32007100312500 3.17129343750000 
 S -3.20796050312500 1.55247800312500 7.32767843750000 
 S -3.12608150312500 5.59051800312500 7.09979043750000 
