16

 C -3.26707039062500 0.855005006250001 5.47946773125000 
 C -3.28187939062500 5.15100900625000 5.47598073125000 
 C -4.50290939062500 0.564443006250001 4.74493673125000 
 C -4.47891339062500 4.63003000625000 4.79360273125000 
 N -2.21831139062500 1.11915100625000 4.67963873125000 
 N -2.25616539062500 5.39514900625000 4.68573673125000 
 N -4.43450839062500 0.596767006250001 3.40608573125000 
 N -4.34960139062500 4.56223900625000 3.47036673125000 
 N -5.13660339062500 0.725107006250001 7.24761673125000 
 N -4.98774439062500 4.48756700625000 7.32930573125000 
 S -5.88312239062500 0.580677006250001 5.76101773125000 
 S -5.76255939062500 4.11765900625000 5.85643173125000 
 S -2.80744239062500 0.946709006250001 3.14072573125000 
 S -2.75921739062500 5.06009200625000 3.16585873125000 
 S -3.47217039062500 0.873772006250001 7.21211773125000 
 S -3.56047539062500 5.31000000625000 7.22260473125000 
