16

 C -2.96729553125000 1.03032464687500 5.82371779687500 
 C -3.21467653125000 4.94437864687500 5.56805679687500 
 C -4.20860253125000 0.664443646875001 5.19591579687500 
 C -4.36248153125000 4.44436364687500 4.90656279687500 
 N -1.95174553125000 1.15610764687500 4.97249779687500 
 N -2.28752753125000 5.40094864687500 4.73381179687500 
 N -4.10360753125000 0.445485646875001 3.89822079687500 
 N -4.24328853125000 4.35435364687500 3.56342179687500 
 N -4.91368153125000 0.992677646875001 7.61692079687500 
 N -4.97461153125000 4.62484864687500 7.40216079687500 
 S -5.59956053125000 0.516613646875001 6.19938679687500 
 S -5.61675153125000 4.01298064687500 6.01698479687500 
 S -2.57100853125000 0.903940646875001 3.43174579687500 
 S -2.77219953125000 5.02917164687500 3.17738779687500 
 S -3.25842653125000 1.28594164687500 7.55459379687500 
 S -3.46865553125000 5.32020064687500 7.28247779687500 
