16

 C -3.23031241250000 0.978761259374997 5.61755995937500 
 C -2.92308841250000 5.10135125937500 5.58952495937500 
 C -4.37735841250000 0.476025259374997 4.89100095937500 
 C -4.11004741250000 4.57597525937500 4.95672395937500 
 N -2.15760941250000 1.14943425937500 4.85186395937500 
 N -1.87054041250000 5.25503725937500 4.77210795937500 
 N -4.21821041250000 0.496819259374996 3.56685495937500 
 N -3.98718841250000 4.51150525937500 3.63916495937500 
 N -5.20766241250000 1.02906225937500 7.34637395937500 
 N -4.72210941250000 4.78717925937500 7.43353195937500 
 S -5.81913941250000 0.349541259374997 5.96941895937500 
 S -5.46434941250000 4.26827625937500 6.02580895937500 
 S -2.62252941250000 0.844652259374997 3.29476295937500 
 S -2.45898541250000 4.80171825937500 3.25492195937500 
 S -3.53058041250000 1.27130525937500 7.31365495937500 
 S -3.15841241250000 5.35156725937500 7.27533595937500 
