16

 C -3.04629556250000 1.35010588750000 5.30013483437500 
 C -3.24548356250000 5.14795888750000 5.67224983437500 
 C -4.32543056250000 0.953433887499997 4.75391583437500 
 C -4.47111356250000 4.71685688750000 5.07232083437500 
 N -2.09813156250000 1.24703088750000 4.38296083437500 
 N -2.24190056250000 5.34144888750000 4.79100083437500 
 N -4.38457356250000 0.612809887499997 3.49957683437500 
 N -4.38056556250000 4.57924788750000 3.75925783437500 
 N -4.78036656250000 1.55510588750000 7.13725283437500 
 N -4.91665256250000 4.84194288750000 7.62512483437500 
 S -5.70185356250000 1.02543788750000 5.87945783437500 
 S -5.71611656250000 4.53705588750000 6.23555383437500 
 S -2.81522256250000 0.787371887499997 2.87883583437500 
 S -2.79570656250000 4.98186988750000 3.29929583437500 
 S -3.16137956250000 1.73801888750000 7.00956583437500 
 S -3.21797856250000 5.23339888750000 7.34198883437500 
