16

 C -3.21574226250000 1.27543347187500 5.72601795312500 
 C -3.19500226250000 5.28105747187500 5.56954295312500 
 C -4.49476426250000 1.07930847187500 5.08757295312500 
 C -4.41448326250000 4.83190347187500 4.92497195312500 
 N -2.17551026250000 1.33159247187500 4.89498195312500 
 N -2.23855026250000 5.62613047187500 4.68944595312500 
 N -4.48103126250000 0.862267471875002 3.78777995312500 
 N -4.24730026250000 4.57103147187500 3.62335895312500 
 N -4.94562426250000 1.40059847187500 7.61364695312500 
 N -4.99262126250000 5.05060247187500 7.41820595312500 
 S -5.77567326250000 1.10529647187500 6.17927795312500 
 S -5.70137126250000 4.51159347187500 5.96040095312500 
 S -2.88597226250000 0.953253471875002 3.38628595312500 
 S -2.70324926250000 5.06001847187500 3.21290495312500 
 S -3.31027126250000 1.45763047187500 7.45163995312500 
 S -3.28330226250000 5.43427547187500 7.34876395312500 
