16

 C -2.96664469062500 1.57183840625000 5.43392322500000 
 C -3.12624169062500 5.14102540625000 5.51684122500000 
 C -4.23863369062500 1.40821640625000 4.76660422500000 
 C -4.31633369062500 4.58582840625000 4.89483922500000 
 N -1.87438269062500 1.42938640625000 4.68602122500000 
 N -2.11720769062500 5.35706940625000 4.71474622500000 
 N -4.08580669062500 1.23945640625000 3.45853022500000 
 N -4.18907969062500 4.28843840625000 3.60587922500000 
 N -4.67167269062500 1.63096340625000 7.30663022500000 
 N -5.02161569062500 5.10178240625000 7.31252622500000 
 S -5.54812369062500 1.43808340625000 5.92745622500000 
 S -5.75801869062500 4.66848540625000 5.88317622500000 
 S -2.49080969062500 1.19004040625000 3.11810622500000 
 S -2.64053769062500 4.73476740625000 3.20648022500000 
 S -3.04337369062500 1.80088340625000 7.15750622500000 
 S -3.33910169062500 5.32335040625000 7.31021322500000 
