16

 C -3.33565652187500 1.46316176875000 5.19256263125000 
 C -3.09965552187500 5.19825476875000 5.36101763125000 
 C -4.51964152187500 1.01456976875000 4.52715663125000 
 C -4.28264952187500 4.53571976875000 4.77005363125000 
 N -2.23663752187500 1.45775976875000 4.46874063125000 
 N -1.99935852187500 5.15235676875000 4.58633363125000 
 N -4.28200152187500 0.619491768749997 3.29813363125000 
 N -4.04777552187500 4.04446176875000 3.54939963125000 
 N -5.11870552187500 1.07393476875000 6.99861863125000 
 N -4.86647752187500 4.94676376875000 7.26289263125000 
 S -5.85639052187500 0.635581768749997 5.57250963125000 
 S -5.62698952187500 4.45963476875000 5.87169563125000 
 S -2.64034052187500 0.865166768749997 2.95936963125000 
 S -2.40025652187500 4.26405876875000 3.26901263125000 
 S -3.56306852187500 1.72207976875000 6.88872663125000 
 S -3.27654852187500 5.51046576875000 7.13865563125000 
