16

 C -3.03000498125000 1.42626015000000 5.53688355312500 
 C -3.02617998125000 4.90594115000000 5.26107855312500 
 C -4.21007398125000 0.977906150000003 4.89926855312500 
 C -4.31865898125000 4.80494915000000 4.63311155312500 
 N -1.96823698125000 1.48981815000000 4.72418755312500 
 N -1.98138498125000 4.72098915000000 4.46598755312500 
 N -4.06134198125000 0.697530150000004 3.56886255312500 
 N -4.26883198125000 4.59727715000000 3.30615155312500 
 N -4.83724798125000 1.31042815000000 7.35021255312500 
 N -4.68743698125000 5.25488115000000 7.16556955312500 
 S -5.62567098125000 0.922062150000004 5.95287255312500 
 S -5.57915298125000 4.86092615000000 5.78366955312500 
 S -2.41966398125000 1.04932715000000 3.24398055312500 
 S -2.65230798125000 4.58876215000000 2.94281255312500 
 S -3.26187898125000 1.83434015000000 7.15675755312500 
 S -3.01404298125000 5.32173815000000 6.92406655312500 
