16

 C -2.95479103437500 1.25342951562500 5.37387022500000 
 C -2.83257903437500 5.14920551562500 5.67408522500000 
 C -4.16894903437500 0.756875515625005 4.58976222500000 
 C -4.12474003437500 4.68510951562500 5.16495922500000 
 N -1.87113203437500 1.45338351562501 4.63042222500000 
 N -1.92055703437500 5.26516251562500 4.69794522500000 
 N -3.94504703437500 0.540701515625005 3.29757122500000 
 N -4.21429303437500 4.45228651562500 3.84452822500000 
 N -4.71906003437500 0.791926515625005 7.14138522500000 
 N -4.42903203437500 4.79153451562500 7.71755022500000 
 S -5.44344303437500 0.334632515625005 5.73153822500000 
 S -5.31128703437500 4.33931351562500 6.39010922500000 
 S -2.36079803437500 1.03646851562501 3.10010722500000 
 S -2.66193903437500 4.80548951562501 3.25115822500000 
 S -3.19352603437500 1.46284451562501 7.03512722500000 
 S -2.84685303437500 5.32849351562501 7.46169322500000 
