16

 C -3.08378892812500 1.96469232187500 5.78474571562500 
 C -3.13702492812500 5.42897032187500 5.62533571562500 
 C -4.31547992812500 1.60452432187500 5.16260771562500 
 C -4.40318192812500 5.00716432187500 5.06331771562500 
 N -2.04116792812500 1.95547832187500 4.95096271562500 
 N -2.10963292812500 5.49955732187500 4.80081871562500 
 N -4.18668092812500 1.40797232187500 3.83673971562500 
 N -4.28628092812500 4.79694532187500 3.75255771562500 
 N -4.75342892812500 1.39596332187500 7.67328171562500 
 N -4.80846292812500 5.10629932187500 7.64526871562500 
 S -5.61150292812500 1.48986732187500 6.26536071562500 
 S -5.66213092812500 4.83904532187500 6.23945971562500 
 S -2.58623592812500 1.74168132187500 3.40609471562500 
 S -2.75932292812500 5.13951732187500 3.31356771562500 
 S -3.11931492812500 1.74031432187500 7.53025471562500 
 S -3.18603692812500 5.34788332187500 7.35839571562500 
