16

 C -3.20685769062500 1.43670083750000 5.58845975625000 
 C -3.29296169062500 5.30436283750000 5.43371275625000 
 C -4.32442469062500 0.898362837500004 4.84399175625000 
 C -4.34343669062500 4.69149483750000 4.71412675625000 
 N -2.18901969062500 1.65744483750000 4.71649875625000 
 N -2.19456669062500 5.55699083750000 4.76336175625000 
 N -4.23626769062500 0.631140837500004 3.53624675625000 
 N -4.05820469062500 4.40161683750000 3.40921775625000 
 N -5.07369469062500 0.821154837500004 7.24658175625000 
 N -5.16759069062500 5.00716583750000 7.18151775625000 
 S -5.67823469062500 0.439694837500005 5.78026075625000 
 S -5.68212869062500 4.18442683750000 5.85570475625000 
 S -2.70417569062500 1.19626683750000 3.13661475625000 
 S -2.47124869062500 4.95915383750000 3.21743975625000 
 S -3.51404469062500 1.42980683750000 7.34598775625000 
 S -3.57135669062500 5.60149083750000 7.09044375625000 
