16

 C -3.24821213750000 1.38856367187500 5.53318264375000 
 C -3.17019513750000 5.05399467187500 5.67648264375000 
 C -4.45022013750000 0.850082671874999 5.00422464375000 
 C -4.30480213750000 4.37438767187500 5.11405664375000 
 N -2.26326613750000 1.40416067187500 4.67561964375000 
 N -2.12781213750000 5.09569067187500 4.83560764375000 
 N -4.41120213750000 0.468490671874999 3.72394264375000 
 N -4.25294513750000 4.13617567187500 3.81562064375000 
 N -4.89253513750000 1.26000967187500 7.58024664375000 
 N -4.93345313750000 4.79935167187500 7.52580464375000 
 S -5.73902313750000 0.878826671874999 6.16556864375000 
 S -5.65659113750000 4.27410367187500 6.15309464375000 
 S -2.87054913750000 0.813979671874999 3.19816664375000 
 S -2.75677913750000 4.63186267187500 3.34948164375000 
 S -3.25290813750000 1.76397567187500 7.30645664375000 
 S -3.34267813750000 5.21170467187500 7.38521064375000 
