16

 C -3.07457698437500 1.63499930312500 5.45224660000000 
 C -3.50501298437500 5.10815530312500 5.53454760000000 
 C -4.19217598437500 1.02300330312500 4.71142960000000 
 C -4.68148098437500 4.49948130312500 4.96502160000000 
 N -2.02055298437500 1.97499430312500 4.73771560000000 
 N -2.58986498437500 5.54629930312500 4.63892060000000 
 N -3.95755198437500 0.846895303125000 3.41772960000000 
 N -4.55457698437500 4.25500230312500 3.67286660000000 
 N -4.74910898437500 0.865927303125000 7.29528160000000 
 N -5.16652198437500 4.62464430312500 7.48712460000000 
 S -5.54475798437500 0.655642303124999 5.84225160000000 
 S -5.94886598437500 4.08597130312500 6.09584460000000 
 S -2.46287398437500 1.53642930312500 3.17097060000000 
 S -3.09596498437500 4.89515030312500 3.15471260000000 
 S -3.38303498437500 1.85213330312500 7.22806160000000 
 S -3.83791898437500 5.50023630312500 7.21627360000000 
