16

 C -3.17266890625001 0.936360965625001 5.43027514687500 
 C -3.21863290625001 4.59441096562500 5.57838014687500 
 C -4.43022090625001 0.658436965625001 4.83942914687500 
 C -4.53701590625001 4.59319096562500 4.95474714687500 
 N -2.22106890625001 1.16303596562500 4.53821214687500 
 N -2.20895390625001 4.62451096562500 4.73796114687500 
 N -4.47471090625001 0.738692965625002 3.52495714687500 
 N -4.44379990625001 4.62303196562500 3.64122614687500 
 N -4.88684390625001 0.436805965625001 7.35954414687500 
 N -4.89345790625001 4.68533496562500 7.53156414687500 
 S -5.74744290625001 0.230358965625001 5.90527114687500 
 S -5.82832990625000 4.60041196562500 6.13626714687500 
 S -2.96269590625001 1.11974496562500 3.04064614687500 
 S -2.83077290625001 4.70731196562500 3.18430614687500 
 S -3.28641390625001 0.876254965625002 7.16730414687500 
 S -3.20416590625001 4.73878996562500 7.30314614687500 
