16

 C -3.11254986250000 1.52105515625000 5.67584985625000 
 C -3.00651886250000 4.60204915625000 5.45961085625000 
 C -4.39490886250000 1.09834915625000 5.05837685625000 
 C -4.20877686250000 4.15985615625000 4.85426785625000 
 N -2.07899886250000 1.59035615625000 4.84741085625000 
 N -2.03768886250000 4.81091815625000 4.54438685625000 
 N -4.26973386250000 0.835235156250004 3.74614185625000 
 N -4.12950886250000 3.86381915625000 3.55674585625000 
 N -4.85010386250000 1.37929315625000 7.66544985625000 
 N -4.87097386250000 4.48631615625000 7.31982385625000 
 S -5.66765486250000 1.08516515625000 6.26553485625000 
 S -5.58543886250000 4.12509515625000 5.87314485625000 
 S -2.65220286250000 1.17138315625000 3.40010285625000 
 S -2.60021986250000 4.28900015625000 3.09898385625000 
 S -3.22445286250000 1.69040715625000 7.42393885625000 
 S -3.25392386250000 4.64877415625000 7.19057185625000 
