16

 C -2.89817608125000 2.11848753125000 5.46762987187500 
 C -3.08987908125000 5.20971853125000 5.35394487187500 
 C -4.10479408125000 1.61099153125000 4.82874287187500 
 C -4.30291808125000 4.76722353125000 4.62381787187500 
 N -1.85313108125000 2.30631553125000 4.64115787187500 
 N -2.08340208125000 5.57151353125000 4.57499787187500 
 N -4.01942408125000 1.35737953125000 3.52135887187500 
 N -4.10801208125000 4.73273453125000 3.32720987187500 
 N -4.64060708125000 1.79582153125000 7.38028787187500 
 N -4.90800908125000 5.08073853125000 7.15286587187500 
 S -5.43267208125000 1.41621353125000 5.93987487187500 
 S -5.68281808125000 4.56900453125000 5.70982487187500 
 S -2.48772708125000 1.82843653125000 3.15511087187500 
 S -2.52680508125000 5.27948953125000 3.04082187187500 
 S -3.00948408125000 2.24754453125000 7.23291087187500 
 S -3.28541508125000 5.32617053125000 7.08855087187500 
