16

 C -3.40900813437500 1.57496292812500 5.40074122500000 
 C -3.18254813437500 5.24918192812500 5.64278522500000 
 C -4.49787013437500 0.983108928125001 4.65339722500000 
 C -4.44566413437500 4.88575192812500 5.03766622500000 
 N -2.37240313437500 1.98786492812500 4.69143322500000 
 N -2.14487513437500 5.27385592812500 4.81536022500000 
 N -4.31846813437500 1.01240792812500 3.37028022500000 
 N -4.42082513437500 4.83203292812500 3.74132522500000 
 N -5.38429313437500 1.50919992812500 7.09544722500000 
 N -4.86954613437500 5.05561292812500 7.50289422500000 
 S -5.99829213437500 0.729080928125001 5.70371022500000 
 S -5.72843813437500 4.69961892812500 6.16646222500000 
 S -2.78534013437500 1.50726792812500 3.12126822500000 
 S -2.75618513437500 5.01407492812500 3.31917722500000 
 S -3.79463413437500 2.02074892812500 7.05949222500000 
 S -3.25153513437500 5.33207792812500 7.39644122500000 
