16

 C -3.16408324375000 1.12556608437500 5.57381105937500 
 C -3.33536224375000 4.89691808437500 5.47607905937500 
 C -4.23464824375000 0.631191084375001 4.82406505937500 
 C -4.59794124375000 4.71665908437500 4.82799505937500 
 N -2.12905724375000 1.52398108437500 4.86685305937500 
 N -2.30783124375000 4.81926308437500 4.60556605937500 
 N -4.05841824375000 0.602228084375001 3.53733005937500 
 N -4.63544724375000 4.70096608437500 3.48695605937500 
 N -5.00564524375000 0.355523084375001 7.18935305937500 
 N -5.04548924375000 4.75091508437500 7.43777105937500 
 S -5.59489824375000 6.810508437500085E-002 5.68413105937500 
 S -5.91620724375000 4.56172108437500 5.98788305937500 
 S -2.58821424375000 1.33563108437500 3.27513305937500 
 S -3.00705124375000 4.62837808437500 3.10706205937500 
 S -3.50808924375000 1.08075108437500 7.23714205937500 
 S -3.39164724375000 4.75980208437500 7.19501005937500 
