16

 C -3.38625614687500 1.26893181250000 5.42445909375000 
 C -3.16722014687500 5.09664681250000 5.00196109375000 
 C -4.42733614687500 0.490370812499999 4.75981409375000 
 C -4.29697914687500 4.45750581250000 4.32489009375000 
 N -2.43103914687500 1.75511781250000 4.63378609375000 
 N -2.17402614687500 5.47767381250000 4.20554809375000 
 N -4.20630414687500 0.344868812499999 3.44901209375000 
 N -4.12593814687500 4.39790881250000 2.96641909375000 
 N -5.13384014687500 0.823936812500000 7.24642509375000 
 N -4.78076214687500 4.24336981250000 6.87987309375000 
 S -5.73701014687500 0.188221812499999 5.83062709375000 
 S -5.55439114687500 3.83568181250000 5.41709909375000 
 S -2.81393314687500 1.16264481250000 3.11876209375000 
 S -2.66496414687500 5.08892381250000 2.67103809375000 
 S -3.59224714687500 1.48608581250000 7.13477109375000 
 S -3.41305614687500 5.24148081250000 6.76706709375000 
