16

 C -3.14059524687500 1.28220993750000 5.35745410937500 
 C -2.91234324687500 5.11576593750000 5.76293010937500 
 C -4.29761424687500 0.912458937499998 4.66998610937500 
 C -4.08336424687500 4.59180293750000 5.10966710937500 
 N -2.10490224687500 1.53735393750000 4.59732110937500 
 N -1.86250824687500 5.26946093750000 4.96040910937500 
 N -4.24540324687500 0.952736937499997 3.36368310937500 
 N -3.96836324687500 4.50533893750000 3.77415510937500 
 N -4.89989724687500 0.794197937499997 7.16178010937500 
 N -4.62347924687500 4.93698493750000 7.64013310937500 
 S -5.59876824687500 0.331323937499997 5.72890810937500 
 S -5.36705324687500 4.33554093750000 6.27184310937500 
 S -2.67925324687500 1.46060993750000 3.01466310937500 
 S -2.35666924687500 4.88414093750000 3.42254910937500 
 S -3.27328924687500 1.22105793750000 7.05677710937500 
 S -3.00894324687500 5.35801693750000 7.47287310937500 
