16

 C -3.12544979687500 1.06767425625000 5.43337144062500 
 C -2.76715379687500 5.12675625625000 5.46631444062500 
 C -4.40999279687500 0.718041256249998 4.96780344062500 
 C -3.96554279687500 4.88887825625000 4.69924244062500 
 N -2.21576579687500 1.12450925625000 4.45934244062500 
 N -1.72025479687500 5.34328625625000 4.66513544062500 
 N -4.46760379687500 0.496745256249999 3.66027044062500 
 N -3.80174579687500 4.68301125625000 3.38608944062500 
 N -4.77453179687500 1.10830125625000 7.46813644062500 
 N -4.68948379687500 4.88488125625000 7.16663744062500 
 S -5.70314079687500 0.773739256249999 6.10252144062500 
 S -5.45176879687500 4.65126525625000 5.66630344062500 
 S -2.93789279687500 0.737227256249999 3.01097544062500 
 S -2.24571579687500 5.14111025625000 3.09676244062500 
 S -3.22483279687500 1.53497025625000 7.11249244062500 
 S -3.06402679687500 5.30683825625000 7.17048244062500 
