16

 C -3.23232059375000 1.55849599375000 5.46992906562500 
 C -2.96809859375000 5.11756799375000 5.56312106562500 
 C -4.47463959375000 1.06321299375000 4.90539906562500 
 C -4.20894159375000 4.64955499375000 4.98189706562500 
 N -2.28116659375000 1.77350199375000 4.56201206562500 
 N -1.94158659375000 5.15680599375000 4.67877106562500 
 N -4.46907159375000 0.928114993750000 3.53024206562500 
 N -4.13523359375000 4.40130599375000 3.64670806562500 
 N -4.83126359375000 1.38496999375000 7.49759506562500 
 N -4.74171859375000 5.08985799375000 7.50015606562500 
 S -5.75004059375000 0.906760993749999 6.16410706562500 
 S -5.58884359375000 4.75790099375000 6.08259006562500 
 S -2.91101959375000 1.40234599375000 3.06260206562500 
 S -2.50560759375000 4.63541599375000 3.22966506562500 
 S -3.25329959375000 1.75564699375000 7.20516606562500 
 S -3.10661259375000 5.34454899375000 7.23996806562500 
