16

 C -3.13491537187500 1.52758052187500 5.29113380625000 
 C -3.22131537187500 5.36687952187500 5.77794080625000 
 C -4.27715037187500 0.830429521875002 4.73444180625000 
 C -4.37539037187500 4.77754452187500 5.10518080625000 
 N -2.06774337187500 1.69009852187500 4.50348080625000 
 N -2.17387737187500 5.56489952187500 4.99517280625000 
 N -4.05977437187500 0.362527521875001 3.49767180625000 
 N -4.22116437187500 4.53195052187500 3.79550580625000 
 N -4.84900137187500 1.42292652187500 7.16616380625000 
 N -5.08793537187500 5.12903152187500 7.59356180625000 
 S -5.64929037187500 0.807844521875001 5.87249080625000 
 S -5.71506337187500 4.61707552187500 6.12770280625000 
 S -2.46976737187500 0.927684521875001 3.06593380625000 
 S -2.66081837187500 5.00458452187500 3.50706880625000 
 S -3.28258937187500 1.94084952187500 6.96265280625000 
 S -3.50555037187500 5.55884852187500 7.50769980625000 
