16

 C -3.34925525000000 1.63292444062500 5.46028162812500 
 C -2.95965925000000 5.36116544062500 5.86727862812500 
 C -4.38979525000000 0.856525440625003 4.80576162812500 
 C -4.19266525000000 4.79496244062500 5.33533762812500 
 N -2.26568725000000 2.05063844062500 4.74385762812500 
 N -2.06347225000000 5.60452144062500 4.92791862812500 
 N -4.05432925000000 0.675275440625002 3.50381562812500 
 N -4.23148525000000 4.58754644062500 4.01270062812500 
 N -4.95519725000000 1.08670844062500 7.33377362812500 
 N -4.70809125000000 5.12383344062500 7.82209062812500 
 S -5.68077725000000 0.422238440625002 5.97504462812500 
 S -5.51082125000000 4.60884244062500 6.40207362812500 
 S -2.63382425000000 1.56120444062500 3.22170362812500 
 S -2.76529325000000 5.15705044062500 3.47977662812500 
 S -3.43686425000000 1.65398344062500 7.16252862812500 
 S -3.04045625000000 5.44005444062500 7.66950562812500 
