16

 C -3.12983167500000 1.39684429062500 5.91047317812500 
 C -3.11853567500000 4.95801029062500 5.71914717812500 
 C -4.33482267500000 0.947849290624999 5.34443017812500 
 C -4.25172667500000 4.46923429062500 5.02824917812500 
 N -2.23389367500000 1.58468229062500 4.94828217812500 
 N -2.04490967500000 5.26908229062500 4.96812717812500 
 N -4.40490667500000 0.731087290624998 4.03138817812500 
 N -4.04514967500000 4.40926029062500 3.70392317812500 
 N -4.93950667500000 1.32257329062500 7.77455617812500 
 N -4.89252667500000 4.89791029062500 7.56372317812500 
 S -5.73326567500000 1.04866729062500 6.35434517812500 
 S -5.61223967500000 4.41153029062500 6.14627317812500 
 S -2.93920267500000 1.10956529062500 3.45176017812500 
 S -2.53055467500000 5.03748529062500 3.43356717812500 
 S -3.36139767500000 1.78297329062500 7.67382017812500 
 S -3.19549667500000 5.22513329062500 7.35213717812500 
