16

 C -2.82299420625000 1.44164699375000 5.84457695625000 
 C -3.41420120625000 5.39309199375000 5.59407395625000 
 C -4.07371220625000 1.40468299375000 5.20267095625000 
 C -4.64049420625000 4.99241699375000 4.92451295625000 
 N -1.81891120625000 1.47056099375000 4.98785395625000 
 N -2.33638620625000 5.56810899375000 4.79996395625000 
 N -4.04352920625000 1.32207799375000 3.88657595625000 
 N -4.46314220625000 4.73014399375000 3.62356195625000 
 N -4.59286920625000 1.32905899375000 7.71783395625000 
 N -5.09132820625000 5.02448199375000 7.51049995625000 
 S -5.43782920625000 1.33389999375000 6.30434295625000 
 S -5.97721820625000 4.74820399375000 6.09525795625000 
 S -2.47291420625000 1.41469999375000 3.37827995625000 
 S -2.88817320625000 5.08843499375000 3.25284795625000 
 S -2.91355220625000 1.53611599375000 7.58470895625000 
 S -3.43358220625000 5.23210499375000 7.30360095625000 
