16

 C -3.07735030937500 1.27347062187500 5.51121777187500 
 C -3.25514730937500 5.05124662187500 5.47575477187500 
 C -4.36156830937500 1.05667362187500 4.84991277187500 
 C -4.48225330937500 4.66209062187500 4.84034877187500 
 N -2.02422930937500 1.25777062187500 4.69291077187500 
 N -2.20269930937500 4.96960962187500 4.65694777187500 
 N -4.31354530937500 0.879112621874998 3.51300577187500 
 N -4.38065630937500 4.40589962187500 3.54462277187500 
 N -4.97910330937500 1.41099062187500 7.35901577187500 
 N -5.02487630937500 5.12759562187500 7.32316577187500 
 S -5.72327730937500 1.49740362187500 5.89837577187500 
 S -5.82361030937500 4.47878062187500 6.00965977187500 
 S -2.64651730937500 0.984012621874998 3.20120377187500 
 S -2.70611430937500 4.54382162187500 3.20711877187500 
 S -3.30270430937500 1.45112262187500 7.30576677187500 
 S -3.41724730937500 5.56421962187500 7.11726477187500 
