16

 C -3.15663260000000 1.56487364375000 5.62307866562500 
 C -3.28364160000000 4.92112464375000 5.42353366562500 
 C -4.42075760000000 1.26765264375000 5.04911866562500 
 C -4.54252760000000 4.78450764375000 4.72788766562500 
 N -2.16966960000000 1.55765864375000 4.76240566562500 
 N -2.17846060000000 4.84461164375000 4.69021666562500 
 N -4.43282460000000 1.14350064375000 3.74384066562500 
 N -4.40021460000000 4.66728064375000 3.41416866562500 
 N -4.85886860000000 1.57930964375000 7.53793366562500 
 N -5.07138860000000 4.95219664375000 7.24268866562500 
 S -5.70551260000000 1.14533064375000 6.19115666562500 
 S -5.83401360000000 4.58245064375000 5.82470466562500 
 S -2.74203560000000 1.29161764375000 3.24482066562500 
 S -2.68437060000000 4.75728364375000 3.12226866562500 
 S -3.23553060000000 1.84649264375000 7.36736066562500 
 S -3.41908660000000 5.19625764375000 7.10859566562500 
