16

 C -3.23374494687499 0.954542118750004 5.40989612812500 
 C -3.13377694687499 4.56068011875000 5.54998412812500 
 C -4.43594194687499 0.516436118750005 4.78486112812500 
 C -4.41973994687499 4.71207911875001 4.94168412812500 
 N -2.25119794687499 1.33001711875000 4.60960912812500 
 N -2.17038394687499 4.38877511875001 4.68979812812500 
 N -4.29707394687499 0.543081118750004 3.45065012812500 
 N -4.42947394687499 4.75300011875000 3.63708312812500 
 N -4.82422294687499 0.517668118750005 7.36186912812500 
 N -4.85661094687499 4.79522611875000 7.49027012812500 
 S -5.67484694687499 0.202806118750004 5.95239412812500 
 S -5.71052894687499 4.72819111875001 6.06536312812500 
 S -2.84095394687499 1.20495811875000 3.08621712812500 
 S -2.89591394687499 4.47475311875000 3.13413212812500 
 S -3.20000194687499 0.933711118750005 7.11837412812500 
 S -3.21641894687499 4.85504211875001 7.26207412812500 
