16

 C -3.15988250000000 1.35742345312500 5.57995254062500 
 C -2.91727350000000 5.25571945312500 5.42853554062500 
 C -4.36345350000000 0.789075453125002 5.05898354062500 
 C -4.17979250000000 4.87663345312500 4.84195554062500 
 N -2.26184450000000 1.61624445312500 4.67801654062500 
 N -1.96730350000000 5.51314645312500 4.57437154062500 
 N -4.36084150000000 0.615902453125003 3.72942654062500 
 N -4.15828750000000 4.85142045312500 3.53663654062500 
 N -4.75565550000000 1.24505545312500 7.56019454062500 
 N -4.59573550000000 5.03466145312500 7.36897854062500 
 S -5.61466550000000 0.570030453125002 6.27652254062500 
 S -5.39429450000000 4.67346345312500 6.00927554062500 
 S -2.82575950000000 1.04236145312500 3.18844454062500 
 S -2.66575050000000 5.29713845312500 3.02945054062500 
 S -3.22730450000000 1.76726545312500 7.26905054062500 
 S -3.00758350000000 5.39348845312500 7.15807154062500 
