16

 C -3.32582589375000 1.26143518437500 5.52775976875000 
 C -3.28188589375000 4.99091318437500 5.13762076875000 
 C -4.57787589375000 0.918171184375001 4.85879876875000 
 C -4.43493689375000 4.38104818437500 4.51960076875000 
 N -2.28142189375000 1.28214918437500 4.70427976875000 
 N -2.28877889375000 5.21811418437500 4.31110876875000 
 N -4.49176289375000 0.883611184375001 3.53585876875000 
 N -4.26435989375000 4.07455918437500 3.26377676875000 
 N -5.15940689375000 1.09404118437500 7.33038776875000 
 N -4.96046289375000 4.91572918437500 7.02612476875000 
 S -5.91898689375000 0.661519184375001 5.89397176875000 
 S -5.76019089375000 4.42541318437500 5.64441176875000 
 S -2.86392389375000 1.16124018437500 3.17507276875000 
 S -2.70993389375000 4.60136718437500 2.84006976875000 
 S -3.56192089375000 1.46023818437500 7.24880176875000 
 S -3.37979089375000 5.27224618437500 6.79043276875000 
