16

 C -3.13767523437500 1.42039320625000 5.60062975625000 
 C -2.99524123437500 5.31170120625000 5.86807275625000 
 C -4.35977123437500 0.944310206250001 4.85732475625000 
 C -4.13440523437500 4.77129720625000 5.17660375625000 
 N -2.11177023437500 1.70126820625000 4.82463675625000 
 N -1.89716123437500 5.54221120625000 5.14797475625000 
 N -4.23236523437500 0.873537206250001 3.53957075625000 
 N -3.91217323437500 4.55944520625000 3.87596375625000 
 N -4.84227723437500 0.935574206250001 7.38175875625000 
 N -4.81330523437500 4.82918820625000 7.65224775625000 
 S -5.70609023437500 0.706687206250001 5.93276075625000 
 S -5.54635723437500 4.77816820625000 6.17752575625000 
 S -2.67816423437500 1.38576520625000 3.26609075625000 
 S -2.35674023437500 5.12614720625000 3.55615775625000 
 S -3.25705123437500 1.45001020625000 7.28366675625000 
 S -3.18291623437500 5.30165920625000 7.56686075625000 
