16

 C -3.13068120312500 1.31460756875000 5.37187121875000 
 C -3.10882820312500 4.89136956875000 5.51322821875000 
 C -4.32671220312500 0.555867568749997 4.80724321875000 
 C -4.40428320312500 4.62252756875000 4.95670521875000 
 N -2.22697820312500 1.63635556875000 4.46549521875000 
 N -2.16145420312500 4.97948656875000 4.57549521875000 
 N -4.17470220312500 0.278917568749998 3.51053421875000 
 N -4.48488920312500 4.55333756875000 3.62085521875000 
 N -4.89217420312500 1.18190856875000 7.28516021875000 
 N -4.78027020312500 4.80746056875000 7.50972321875000 
 S -5.54823020312500 0.312232568749998 6.03724921875000 
 S -5.67672820312500 4.56683156875000 6.11984721875000 
 S -2.70387320312500 0.930541568749998 3.03608821875000 
 S -2.92094120312500 4.72038756875000 3.09448221875000 
 S -3.37547620312500 1.83931656875000 6.99642821875000 
 S -3.14337120312500 5.28811356875000 7.25845621875000 
