16

 C -3.33791255625000 1.49021896250000 5.45790929375000 
 C -3.05529255625000 5.19160996250000 5.88907929375000 
 C -4.55911555625000 1.16893796250000 4.76505529375000 
 C -4.37104355625000 4.94545596250000 5.27989629375000 
 N -2.25590355625000 1.63361396250000 4.68116329375000 
 N -2.09670355625000 5.23095196250000 4.95506729375000 
 N -4.41509755625000 1.09889196250000 3.44526229375000 
 N -4.41639955625000 4.82290796250000 3.97374929375000 
 N -5.03931455625000 1.08339696250000 7.37303129375000 
 N -4.77337055625000 5.09200696250000 7.86988029375000 
 S -5.85544555625000 0.723045962500003 5.91937329375000 
 S -5.62520655625000 5.02440696250000 6.42824829375000 
 S -2.82556055625000 1.54344496250000 3.14325429375000 
 S -2.80157455625000 5.05526896250000 3.50959129375000 
 S -3.47848755625000 1.61201796250000 7.20802829375000 
 S -3.15988655625000 5.37362996250000 7.61136629375000 
