16

 C -3.14155005312500 1.34534869062500 5.50599981875000 
 C -3.09603205312500 5.17167469062500 5.60872181875000 
 C -4.24932105312500 0.701534690625000 4.81455281875000 
 C -4.16579305312500 4.56041269062500 4.86793181875000 
 N -2.12985505312500 1.70904269062500 4.72553181875000 
 N -1.99060205312500 5.33910669062500 4.85632981875000 
 N -4.14623505312500 0.632307690625001 3.51183881875000 
 N -4.04848005312500 4.39810169062500 3.55543681875000 
 N -4.90739305312500 0.900451690625002 7.30255081875000 
 N -5.24739305312500 5.10886169062500 7.13732781875000 
 S -5.62660905312500 0.359074690625001 5.88952181875000 
 S -5.62325605312500 4.24333969062500 5.78805781875000 
 S -2.58639205312500 1.34040269062500 3.18141881875000 
 S -2.44653205312500 4.87692669062500 3.30038581875000 
 S -3.35091405312500 1.55072469062500 7.11424681875000 
 S -3.57085105312500 5.60055669062500 7.23922181875000 
