16

 C -3.10971674375000 1.51270658125000 5.63441267187500 
 C -3.11410174375000 4.86971758125000 5.50562367187500 
 C -4.44266974375000 1.30020858125000 5.13035367187500 
 C -4.40353274375000 4.64086358125000 4.88106967187500 
 N -2.20180474375000 1.69873358125000 4.67640267187500 
 N -2.11876274375000 5.13080658125000 4.65230067187500 
 N -4.50293574375000 1.23055158125000 3.80856267187500 
 N -4.37347074375000 4.60682958125000 3.56995367187500 
 N -4.75300174375000 1.64949258125000 7.61810867187500 
 N -4.97186274375000 4.74677158125000 7.30199167187500 
 S -5.67304074375000 1.33827358125000 6.27283367187500 
 S -5.80246874375000 4.56196258125000 5.90101867187500 
 S -2.89459074375000 1.50222358125000 3.20464267187500 
 S -2.77792474375000 4.90448658125000 3.10393967187500 
 S -3.11112974375000 1.74927558125000 7.34242867187500 
 S -3.33026274375000 4.96028158125000 7.24592867187500 
