16

 C -3.28134249375000 1.19239832812500 5.53533100625000 
 C -3.41130649375000 4.72533132812500 5.31329600625000 
 C -4.40258049375000 0.708564328125000 4.84103800625000 
 C -4.65262749375000 4.49822732812500 4.65601200625000 
 N -2.23884849375000 1.55360032812500 4.80012000625000 
 N -2.38997649375000 4.95117432812500 4.49615000625000 
 N -4.22075449375000 0.572808328125000 3.52918800625000 
 N -4.60895049375000 4.53343832812500 3.30966800625000 
 N -5.08582349375000 0.925368328125000 7.32218800625000 
 N -5.16411949375000 4.71848632812500 7.22778700625000 
 S -5.66239049375000 0.137786328125000 5.93611000625000 
 S -5.97726449375000 4.50817732812500 5.78484300625000 
 S -2.73656949375000 1.22156932812500 3.28313200625000 
 S -3.00157049375000 4.94820932812500 2.98812300625000 
 S -3.47523049375000 1.32631932812500 7.22768200625000 
 S -3.47755649375000 4.88962532812500 7.05653200625000 
