16

 C -3.11422420625000 1.50929020625000 5.64310750000000 
 C -3.15229420625000 4.86712520625000 5.47684250000000 
 C -4.42098020625000 1.32611520625000 5.11798250000000 
 C -4.44216120625000 4.66292720625000 4.83947150000000 
 N -2.17401720625000 1.65663720625000 4.72604350000000 
 N -2.11827120625000 5.04893420625000 4.65092250000000 
 N -4.48010920625000 1.19123120625000 3.82016050000000 
 N -4.33887720625000 4.63147720625000 3.52443850000000 
 N -4.76492520625000 1.65484020625000 7.61469450000000 
 N -4.99217820625000 4.79304920625000 7.29630150000000 
 S -5.66784920625000 1.29026320625000 6.22728950000000 
 S -5.81483520625000 4.56750420625000 5.90606550000000 
 S -2.91567120625000 1.47308520625000 3.22902050000000 
 S -2.77318820625000 4.88378920625000 3.09216150000000 
 S -3.12799520625000 1.77813020625000 7.33824750000000 
 S -3.35379220625000 5.00689420625000 7.23857050000000 
