16

 C -3.22932592187500 1.53128064687500 5.46759230625000 
 C -2.96613592187500 5.07181264687500 5.50707430625000 
 C -4.48110792187500 1.05844664687500 4.89570530625000 
 C -4.23708592187500 4.68454764687500 4.93832030625000 
 N -2.30586892187500 1.78355564687500 4.55737730625000 
 N -1.93871092187500 5.15576664687500 4.68125530625000 
 N -4.47353792187500 0.934657646874999 3.51361030625000 
 N -4.13615692187500 4.36831364687500 3.65714830625000 
 N -4.82275592187500 1.40967664687500 7.51382130625000 
 N -4.72179692187500 5.08483464687500 7.46338630625000 
 S -5.72991892187500 0.897077646874998 6.15267030625000 
 S -5.58843592187500 4.78023164687500 6.06636730625000 
 S -2.87853892187500 1.38536164687500 3.06926130625000 
 S -2.50857092187500 4.60292164687500 3.22432530625000 
 S -3.25753492187500 1.76283864687500 7.21607530625000 
 S -3.08626892187500 5.33687464687500 7.24230630625000 
