16

 C -2.96288359375000 1.51762651875000 5.29662647500000 
 C -3.09203759375000 5.24303751875000 5.49606047500000 
 C -4.15579259375000 0.897653518749998 4.70369047500000 
 C -4.21176359375000 4.65953451875000 4.90924647500000 
 N -1.96022159375000 1.65115851875000 4.49840347500000 
 N -2.08119459375000 5.36343051875000 4.66386147500000 
 N -3.96733359375000 0.686192518749998 3.39590847500000 
 N -4.07799859375000 4.23189551875000 3.66209247500000 
 N -4.46358859375000 1.10349451875000 7.37086647500000 
 N -4.87128059375000 4.91387551875000 7.39990947500000 
 S -5.35073059375000 0.611540518749997 6.05920947500000 
 S -5.60478059375000 4.35345951875000 5.90686147500000 
 S -2.44962559375000 1.19296051875000 2.97343547500000 
 S -2.60124159375000 4.63105951875000 3.21253447500000 
 S -2.98358859375000 1.75247951875000 7.02352547500000 
 S -3.31089959375000 5.43286151875000 7.22490347500000 
