16

 C -3.03758806562500 1.58799681562500 5.40129573750000 
 C -3.16635206562500 5.15406581562500 5.39991673750000 
 C -4.16866506562500 1.15563181562500 4.67375973750000 
 C -4.34375406562500 4.45839681562500 4.86969173750000 
 N -1.85571706562500 1.55302381562500 4.76337373750000 
 N -2.19040306562500 5.24780881562500 4.50399673750000 
 N -3.95884306562500 0.825856815625004 3.40351073750000 
 N -4.28273806562500 4.13233181562500 3.59615973750000 
 N -4.97208906562500 1.28083881562500 7.18044173750000 
 N -4.80065506562500 4.90750281562500 7.35367873750000 
 S -5.62186506562500 0.974315815625004 5.66866273750000 
 S -5.59725706562500 4.34842381562500 6.01178973750000 
 S -2.33916706562500 1.15045181562500 3.13834073750000 
 S -2.79378406562500 4.62794781562500 3.01117273750000 
 S -3.36336406562500 1.75515481562500 7.13450773750000 
 S -3.23340606562500 5.42047081562500 7.20984073750000 
