16

 C -2.90369747187500 1.24543402812499 5.51756200625000 
 C -2.94732947187500 5.02016102812499 5.68947300625000 
 C -4.08226947187500 0.685339028124992 4.83150500625000 
 C -4.17339847187500 4.50883602812499 5.09797100625000 
 N -1.83013047187500 1.30972802812499 4.71941200625000 
 N -1.96835847187500 5.21174002812499 4.81532300625000 
 N -3.87119347187500 0.434287028124992 3.53083600625000 
 N -4.07076847187500 4.45183902812499 3.76467200625000 
 N -4.86732747187500 1.20064402812499 7.20351000625000 
 N -4.59364547187500 4.86990202812499 7.66569600625000 
 S -5.48987647187500 0.529249028124992 5.77396100625000 
 S -5.41618447187500 4.25694502812499 6.34336200625000 
 S -2.30029547187500 0.855014028124993 3.23639900625000 
 S -2.51370147187500 4.87043002812499 3.28955500625000 
 S -3.26145047187500 1.63700302812499 7.15629900625000 
 S -3.05038247187500 5.40305202812499 7.41177300625000 
