16

 C -2.86426912187500 1.78401246250000 5.66728092187500 
 C -3.15307712187500 5.25640646250000 5.67870492187500 
 C -4.18143612187500 1.61220346250000 5.07389792187500 
 C -4.42958212187500 4.91095746250000 5.11725592187500 
 N -1.88048512187500 1.76581246250000 4.79334092187500 
 N -2.14706412187500 5.32833446250000 4.83489792187500 
 N -4.08865612187500 1.65298046250000 3.76386192187500 
 N -4.35707912187500 4.78499046250000 3.79684392187500 
 N -4.58039412187500 1.56141646250000 7.63102492187500 
 N -4.84418312187500 5.23716646250000 7.64640692187500 
 S -5.45238412187500 1.43488046250000 6.26988092187500 
 S -5.69052012187500 4.72792246250000 6.29546492187500 
 S -2.50303212187500 1.68249446250000 3.24832792187500 
 S -2.80741912187500 4.95470646250000 3.31802792187500 
 S -2.98162912187500 1.88727946250000 7.40576392187500 
 S -3.20649312187500 5.60577646250000 7.39650792187500 
