16

 C -2.97764714687500 1.65719790625000 5.44777073437500 
 C -3.06635114687500 5.20773390625000 5.67008273437500 
 C -4.25164814687500 1.30658790625000 4.87611873437500 
 C -4.18968814687500 4.63241090625000 4.97871573437500 
 N -2.02633814687500 1.78770690625000 4.55845773437500 
 N -2.01831114687500 5.49917190625000 4.90867773437500 
 N -4.25885614687500 1.12979790625000 3.58506873437500 
 N -4.03893814687500 4.57324390625000 3.66287373437500 
 N -4.48234314687500 1.22882290625000 7.40306273437500 
 N -4.84626114687500 4.80086990625000 7.46327873437500 
 S -5.50978114687500 1.17621190625000 6.05718373437500 
 S -5.62105714687500 4.45389690625000 6.02839473437500 
 S -2.62811214687500 1.31204190625000 3.10472373437500 
 S -2.47037314687500 5.08283990625000 3.39397373437500 
 S -2.84338714687500 1.63591590625000 7.10559573437500 
 S -3.27664614687500 5.33886890625000 7.31926273437500 
