16

 C -3.21478501562500 1.12788935937500 5.60656428750000 
 C -3.09695201562500 5.11025335937500 5.55947528750000 
 C -4.42138101562500 0.666107359375000 4.96096128750000 
 C -4.32126701562500 4.70315735937500 4.90258928750000 
 N -2.17788501562500 1.36122335937500 4.80416828750000 
 N -2.09872401562500 5.32693735937500 4.72063528750000 
 N -4.36610101562500 0.664751359375000 3.58960428750000 
 N -4.21373201562500 4.55198835937500 3.56307528750000 
 N -4.99398301562500 1.08996835937500 7.46233828750000 
 N -4.71446301562500 4.63995435937500 7.45725628750000 
 S -5.74781101562500 0.427187359375000 6.11711928750000 
 S -5.52724101562500 4.31692735937500 6.08321528750000 
 S -2.74198801562500 1.00053035937500 3.27973228750000 
 S -2.60882201562500 4.96191135937500 3.24048528750000 
 S -3.40945401562500 1.46710735937500 7.35429028750000 
 S -3.19786601562500 5.20204835937500 7.31511528750000 
