16

 C -3.17194662500000 1.18058184062500 5.72796550937500 
 C -3.07564962500000 4.69219484062500 5.44172750937500 
 C -4.30515462500000 0.725737840625000 5.06602350937500 
 C -4.43626862500000 4.58740384062500 4.97266250937500 
 N -2.18332762500000 1.62794384062500 4.93266250937500 
 N -2.10993062500000 4.87313384062500 4.50351050937500 
 N -4.27431962500000 0.734743840625000 3.70735150937500 
 N -4.46214062500000 4.52163184062500 3.63666650937500 
 N -4.78270862500000 0.738735840625000 7.65374850937500 
 N -4.69899962500000 4.68455584062500 7.51503950937500 
 S -5.50528762500000 0.161984840625000 6.24611450937500 
 S -5.60498662500000 4.27949184062500 6.19801050937500 
 S -2.76090662500000 1.33004984062500 3.39502750937500 
 S -2.91999762500000 4.67725184062500 3.07187650937500 
 S -3.17110462500000 1.03450284062500 7.54122750937500 
 S -3.05530362500000 4.83596784062500 7.17296250937500 
