16

 C -2.91580179687500 1.24704466875000 5.51923457812500 
 C -2.94739679687500 5.02309866875000 5.68988357812500 
 C -4.07644679687500 0.683491668749998 4.83901457812500 
 C -4.16907479687500 4.50454966875000 5.09474957812500 
 N -1.84131679687500 1.30588766875000 4.72621157812500 
 N -1.96972979687500 5.21419966875000 4.81589357812500 
 N -3.87020079687500 0.432229668749998 3.53761657812500 
 N -4.06304179687500 4.44246466875000 3.76530757812500 
 N -4.86969479687500 1.20827166875000 7.20455557812500 
 N -4.59950879687500 4.86961666875000 7.66368957812500 
 S -5.48886579687500 0.533587668749997 5.77569357812500 
 S -5.41895179687500 4.26034566875000 6.33930557812500 
 S -2.29957279687500 0.854403668749998 3.23902757812500 
 S -2.51571979687500 4.86844766875000 3.28784857812500 
 S -3.25849979687500 1.63645766875000 7.15423757812500 
 S -3.05516179687500 5.40203166875000 7.41179457812500 
