16

 C -3.14336495312500 0.938839775000001 5.58611993437500 
 C -2.97352095312500 5.05847877500000 5.58539893437500 
 C -4.34244195312500 0.578596775000000 4.83958393437500 
 C -4.14940295312500 4.55554877500000 4.93677293437500 
 N -2.05600795312500 1.23281077500000 4.83220793437500 
 N -1.91609995312500 5.27091177500000 4.79765593437500 
 N -4.10494595312500 0.475680775000001 3.53713893437500 
 N -4.01891595312500 4.43372177500000 3.62085593437500 
 N -5.08024095312500 1.05632177500000 7.35505493437500 
 N -4.70306195312500 4.77217177500000 7.46381593437500 
 S -5.81457795312500 0.427835775000001 6.01494693437500 
 S -5.46703895312500 4.28276177500000 6.09151893437500 
 S -2.48578795312500 0.827054775000001 3.25505393437500 
 S -2.37533395312500 4.87484677500000 3.26536593437500 
 S -3.47869295312500 1.27386577500000 7.30129393437500 
 S -3.16044595312500 5.34970677500000 7.29175193437500 
