16

 C -2.85407270937500 1.70370614687500 5.71294878125000 
 C -3.05114070937500 5.24545914687500 5.71417178125000 
 C -4.14618070937500 1.65258114687500 5.11019678125000 
 C -4.36789370937500 4.98542514687500 5.14973878125000 
 N -1.84300870937500 1.71254114687500 4.81623178125000 
 N -2.08803170937500 5.32840314687500 4.75824278125000 
 N -4.15356470937500 1.57419814687500 3.76783478125000 
 N -4.38331970937500 4.75533114687500 3.84537278125000 
 N -4.61051270937500 1.62651614687500 7.61638978125000 
 N -4.82748970937500 5.25818614687500 7.60904778125000 
 S -5.48967470937500 1.41649514687500 6.23239378125000 
 S -5.67712470937500 4.74635214687500 6.28948578125000 
 S -2.53272770937500 1.76776314687500 3.27969678125000 
 S -2.84438670937500 4.99267014687500 3.32555778125000 
 S -2.97847770937500 1.86460414687500 7.46845578125000 
 S -3.25432770937500 5.60339514687500 7.39113578125000 
