16

 C -2.84062332500000 1.30683700000000 5.78320657812500 
 C -3.08862432500000 4.79862200000000 5.47448657812500 
 C -4.06193332500000 0.757245999999998 5.18233457812500 
 C -4.35711232500000 4.48506100000000 4.87849657812500 
 N -1.85493932500000 1.38891000000000 4.91049757812500 
 N -2.06097232500000 4.93140100000000 4.62515857812500 
 N -3.83063932500000 0.289344999999998 3.93905957812500 
 N -4.27960132500000 4.20476100000000 3.57158057812500 
 N -4.59869132500000 1.55416300000000 7.57130857812500 
 N -4.81776332500000 5.01996200000000 7.42059057812500 
 S -5.44225232500000 0.861512999999998 6.27802957812500 
 S -5.70591032500000 4.65766200000000 6.01733457812500 
 S -2.30801432500000 0.786837999999998 3.47382557812500 
 S -2.69344632500000 4.47418800000000 3.15671657812500 
 S -2.98054032500000 1.93085300000000 7.37611357812500 
 S -3.18444432500000 5.29454500000000 7.07940657812500 
