16

 C -3.11857362500000 1.52441460000000 5.65834121875000 
 C -2.91853262500000 5.15558560000000 5.44193321875000 
 C -4.39646062500000 1.16664660000000 5.03810521875000 
 C -4.16554062500000 4.83876860000000 4.83514621875000 
 N -2.13496262500000 1.71082760000000 4.77993721875000 
 N -1.91836262500000 5.35777060000000 4.59680121875000 
 N -4.36708862500000 1.17584460000000 3.70865021875000 
 N -4.10056962500000 4.77172460000000 3.49549021875000 
 N -5.01543462500000 1.48613960000000 7.50970621875000 
 N -4.63339762500000 5.14147460000000 7.32346621875000 
 S -5.72407362500000 0.980589600000002 6.11898221875000 
 S -5.49749662500000 4.59320960000000 5.98555921875000 
 S -2.80924262500000 1.40833660000000 3.30697021875000 
 S -2.48796362500000 5.10371960000000 3.11306121875000 
 S -3.39489862500000 1.86196760000000 7.40144121875000 
 S -3.03848762500000 5.29269060000000 7.15379621875000 
