16

 C -2.81533513437500 1.32978610625000 5.73653982812500 
 C -3.08799013437500 4.80468010625000 5.42232482812500 
 C -4.01946913437500 0.706701106250000 5.17253382812500 
 C -4.35121113437500 4.34822010625000 4.89284282812500 
 N -1.78742913437500 1.43457210625000 4.89899182812500 
 N -2.03529713437500 4.81941010625000 4.62980882812500 
 N -3.81275113437500 0.251290106250000 3.93926182812500 
 N -4.23596013437500 4.17381610625000 3.58645482812500 
 N -4.62006113437500 1.55108610625000 7.56072782812500 
 N -4.85497113437500 5.03527410625000 7.37611082812500 
 S -5.43524113437500 0.868900106250000 6.29650882812500 
 S -5.67543613437500 4.67291610625000 6.00673182812500 
 S -2.30662613437500 0.809401106250000 3.39181882812500 
 S -2.66882913437500 4.48317710625000 3.09841982812500 
 S -3.03724113437500 1.91097010625000 7.40008682812500 
 S -3.22302013437500 5.32057010625000 7.05909082812500 
