16

 C -2.92767281562500 1.61856143125001 5.44301732812500 
 C -3.15043481562500 5.17015543125001 5.54658632812500 
 C -4.18612981562500 1.50125443125001 4.79191132812500 
 C -4.32949381562500 4.66490143125001 4.86610432812500 
 N -1.91247081562500 1.55879543125001 4.61605832812500 
 N -2.09247881562500 5.36865343125000 4.74593032812500 
 N -4.06519581562500 1.32597143125001 3.47185732812500 
 N -4.12189581562500 4.33762443125001 3.58672732812500 
 N -4.66545381562500 1.67033043125001 7.32060632812500 
 N -4.97121781562500 5.04411343125001 7.33344832812500 
 S -5.50939581562500 1.39955343125001 5.93315232812500 
 S -5.72472281562500 4.67840843125001 5.89043832812500 
 S -2.43227281562500 1.24140743125001 3.05872832812500 
 S -2.58787281562500 4.77134043125000 3.20034132812500 
 S -3.02955181562500 1.92049043125001 7.13294032812500 
 S -3.36070881562500 5.27599043125000 7.23440532812500 
