16

 C -3.07719552187500 1.94685996562500 5.77221639687500 
 C -3.12434352187500 5.39575096562500 5.64836439687500 
 C -4.31868052187500 1.64260396562500 5.14593939687500 
 C -4.38981352187500 5.06287696562500 5.04448939687500 
 N -2.03698752187500 1.98648796562500 4.97400239687500 
 N -2.11451152187500 5.50797996562500 4.77895939687500 
 N -4.25022752187500 1.43856296562500 3.86191339687500 
 N -4.32142852187500 4.79534096562500 3.74723639687500 
 N -4.72502952187500 1.38826896562500 7.63980939687500 
 N -4.80963252187500 5.08133096562500 7.61477739687500 
 S -5.60998252187500 1.47379996562500 6.24479239687500 
 S -5.64316752187500 4.82378696562500 6.20206939687500 
 S -2.61440852187500 1.70374296562500 3.43355639687500 
 S -2.75892852187500 5.15351296562500 3.30755739687500 
 S -3.14394252187500 1.75214196562500 7.52699839687500 
 S -3.17699752187500 5.33564296562500 7.40178939687500 
