16

 C -3.10450921250000 1.11512923750000 5.47875528125000 
 C -3.15809221250000 5.57766023750000 5.49315828125000 
 C -4.41280821250000 0.833960237500000 4.87040328125000 
 C -4.20140021250000 4.73630423750000 4.88997128125000 
 N -2.09033621250000 1.18892023750000 4.66958928125000 
 N -2.07106521250000 5.75131123750000 4.74208928125000 
 N -4.31117821250000 0.928520237500001 3.56924228125000 
 N -3.97460221250000 4.54453823750000 3.57991928125000 
 N -4.80026621250000 1.04408523750000 7.40391228125000 
 N -5.03786521250000 5.25939023750000 7.20458728125000 
 S -5.72622221250000 0.769509237500000 6.01767928125000 
 S -5.56935321250000 4.42707523750000 5.91476928125000 
 S -2.66585021250000 0.971716237500001 3.09529528125000 
 S -2.50030021250000 5.10520823750000 3.22352228125000 
 S -3.17778621250000 1.38159323750000 7.16950928125000 
 S -3.53500821250000 5.96722223750000 7.14489928125000 
