16

 C -3.21132092187500 1.65149865937500 5.68615719375000 
 C -3.04530192187500 5.26252165937500 5.88230919375000 
 C -4.25172892187500 0.912672659375001 5.02963319375000 
 C -4.24779192187500 4.65278065937500 5.29270719375000 
 N -2.19523992187500 2.03229465937500 4.84694319375000 
 N -2.10143392187500 5.62016965937500 5.01250619375000 
 N -4.12942792187500 0.795102659375001 3.72311819375000 
 N -4.15228492187500 4.48524165937500 4.00160719375000 
 N -5.05433392187500 1.10526865937500 7.46513319375000 
 N -4.66933092187500 4.93096065937500 7.85213419375000 
 S -5.67188892187500 0.629056659375001 5.94482919375000 
 S -5.60577192187500 4.50727365937500 6.50181419375000 
 S -2.70634392187500 1.46908165937500 3.32645019375000 
 S -2.63285192187500 5.09496665937500 3.54068219375000 
 S -3.54344392187500 1.85513365937500 7.45581919375000 
 S -3.19055292187500 5.56747865937500 7.60793019375000 
