16

 C -3.12908797812500 1.30813913437500 5.37554400625000 
 C -3.10902597812500 4.89156613437500 5.51046500625000 
 C -4.32335497812500 0.557026134374998 4.80584700625000 
 C -4.40598097812500 4.62864413437500 4.95756600625000 
 N -2.22560697812500 1.64070113437500 4.47107400625000 
 N -2.16167697812500 4.98606913437500 4.57702900625000 
 N -4.17947697812500 0.277612134374998 3.50486400625000 
 N -4.48658197812500 4.54390013437500 3.62185600625000 
 N -4.89294497812500 1.18392913437500 7.29104700625000 
 N -4.78463697812500 4.80696613437500 7.51110100625000 
 S -5.55053297812500 0.315681134374998 6.04794800625000 
 S -5.68225397812500 4.57327813437500 6.11961800625000 
 S -2.70291897812500 0.925418134374998 3.03342100625000 
 S -2.92110797812500 4.71892613437500 3.09108100625000 
 S -3.37681197812500 1.84394513437500 6.99684500625000 
 S -3.14875597812500 5.29223513437500 7.24928000625000 
