16

 C -3.17442183750000 1.43788369687500 5.49932980000000 
 C -2.81463083750000 5.33118269687500 5.42018080000000 
 C -4.40476083750000 0.876170696874997 5.04611880000000 
 C -4.09680583750000 4.87837769687500 4.85784880000000 
 N -2.17036783750000 1.64791769687500 4.67557080000000 
 N -1.90928483750000 5.60847869687500 4.44482080000000 
 N -4.31876283750000 0.605261696874997 3.74110080000000 
 N -4.18035683750000 4.79866569687500 3.53380180000000 
 N -4.66417583750000 1.16643869687500 7.62356180000000 
 N -4.60814883750000 4.94745669687500 7.41518780000000 
 S -5.59074283750000 0.720697696874998 6.35685780000000 
 S -5.42840883750000 4.66685669687500 5.95039380000000 
 S -2.79116083750000 1.09842769687500 3.25977380000000 
 S -2.69065483750000 5.25422969687500 3.01334780000000 
 S -3.09132283750000 1.65741469687500 7.23051880000000 
 S -3.00629183750000 5.39280669687500 7.22136680000000 
