16

 C -3.34887152500000 1.65416989375000 5.46783600625000 
 C -2.95260352500000 5.34664789375000 5.85809700625000 
 C -4.36994852500000 0.875369893750003 4.80062700625000 
 C -4.21235552500000 4.80478889375000 5.29879500625000 
 N -2.25889852500000 2.03104989375000 4.71919800625000 
 N -2.05234452500000 5.61019189375000 4.92157600625000 
 N -4.05179952500000 0.689013893750003 3.49721200625000 
 N -4.23464552500000 4.61178889375000 4.00431600625000 
 N -4.95921052500000 1.07259089375000 7.33384800625000 
 N -4.69578152500000 5.11817889375000 7.78598600625000 
 S -5.67683952500000 0.400469893750003 5.95540200625000 
 S -5.53032752500000 4.61620089375000 6.42583400625000 
 S -2.65163552500000 1.54704189375000 3.20399800625000 
 S -2.75575652500000 5.16251789375000 3.47762200625000 
 S -3.42704952500000 1.64526589375000 7.15513600625000 
 S -3.02662552500000 5.44017189375000 7.65903600625000 
