16

 C -3.14133392187500 1.41986943750000 5.41553690000000 
 C -3.25477292187500 5.17062143750000 5.39651490000000 
 C -4.28264992187500 0.840980437499999 4.80988090000000 
 C -4.52558092187500 4.72562343750000 4.87647790000000 
 N -2.05714692187500 1.60859643750000 4.68482690000000 
 N -2.25646992187500 5.10754043750000 4.52025290000000 
 N -4.07197792187500 0.405643437499999 3.56612290000000 
 N -4.48209792187500 4.28565243750000 3.61516590000000 
 N -4.98984092187500 1.44244643750000 7.31050890000000 
 N -4.98600992187500 5.25812543750000 7.34684690000000 
 S -5.65553092187500 0.667843437499999 5.99427590000000 
 S -5.80753492187500 4.66388643750000 6.00552190000000 
 S -2.53026692187500 0.915084437499999 3.16331090000000 
 S -2.95100492187500 4.59356343750000 3.04583790000000 
 S -3.40528092187500 1.89419643750000 7.10325190000000 
 S -3.39582792187500 5.62124843750000 7.05190790000000 
