16

 C -3.20699240312500 0.945952537500001 5.63541846875000 
 C -3.23639540312500 4.88862353750000 5.33179446875000 
 C -4.39496940312500 0.735155537500001 4.91021946875000 
 C -4.40997140312500 4.35180653750000 4.61729546875000 
 N -2.10895240312500 1.01451253750000 4.87507646875000 
 N -2.16881940312500 5.01206053750000 4.58769846875000 
 N -4.24409540312500 0.839776537500001 3.58542046875000 
 N -4.25304340312500 4.25088353750000 3.30971446875000 
 N -4.93656040312500 0.662622537500001 7.34879546875000 
 N -4.94831440312500 4.67151453750000 7.12179346875000 
 S -5.77404440312500 0.424027537500001 5.91062446875000 
 S -5.69633140312500 4.13580053750000 5.78965546875000 
 S -2.59625740312500 0.927705537500001 3.28178946875000 
 S -2.66956040312500 4.70742653750000 3.00815346875000 
 S -3.28944340312500 0.890833537500001 7.34040746875000 
 S -3.47070240312500 5.38052253750000 6.94732746875000 
