16

 C -3.08290680312500 1.04717493437500 5.75023937500000 
 C -2.81546480312500 4.68418293437499 5.45457537500000 
 C -4.46239880312500 0.911669934374995 5.22738737500000 
 C -4.08360280312500 4.41050393437500 4.82748937500000 
 N -2.12011080312500 1.00286293437500 4.81047537500000 
 N -1.80416580312500 4.87141893437500 4.57108837500000 
 N -4.49172080312500 0.625644934374995 3.91774737500000 
 N -4.08006280312500 4.33909593437500 3.47610637500000 
 N -4.48717880312500 1.74487593437500 7.72888037500000 
 N -4.73557680312500 4.77800993437500 7.30177637500000 
 S -5.54748580312500 1.43537293437500 6.53456137500000 
 S -5.48416580312500 4.61718393437500 5.81655137500000 
 S -2.83239080312500 0.547556934374995 3.39439337500000 
 S -2.49026880312500 4.68324193437500 3.06347537500000 
 S -2.87581980312500 1.68009793437500 7.36762737500000 
 S -2.96798980312500 4.80399093437500 7.21057937500000 
