16

 C -3.21108092187500 1.52319783125000 5.56670010312500 
 C -3.04692692187500 5.29516583125000 5.62008310312500 
 C -4.39388692187500 1.17188083125000 4.77200210312500 
 C -4.34819292187500 5.05449283125000 4.95286310312500 
 N -2.17132392187500 1.80423583125000 4.79847910312500 
 N -2.05374292187500 5.45442983125000 4.77361610312500 
 N -4.17470092187500 1.19969283125000 3.44536910312500 
 N -4.22508992187500 4.81108883125000 3.64350210312500 
 N -4.98789892187500 0.643064831250001 7.24717710312500 
 N -4.80448792187500 5.03548483125000 7.51619310312500 
 S -5.72060592187500 0.698707831250001 5.74433510312500 
 S -5.67984892187500 4.97806583125000 6.05705810312500 
 S -2.60225692187500 1.68620083125000 3.24794610312500 
 S -2.62238192187500 5.02330583125000 3.26308310312500 
 S -3.53516292187500 1.39943683125000 7.32578310312500 
 S -3.12315592187500 5.57589383125000 7.39014110312500 
