16

 C -2.98142179062500 1.43259310625000 5.65649216250000 
 C -2.95345979062500 5.28825010625000 5.38166216250000 
 C -4.24504379062500 1.02799110625000 5.13264516250000 
 C -4.20957779062500 4.82605910625000 4.74636216250000 
 N -2.07133279062500 1.67829410625000 4.71308116250000 
 N -1.92715779062500 5.53893710625000 4.62796716250000 
 N -4.34505679062500 0.910701106250003 3.80802616250000 
 N -4.09416179062500 4.78150010625000 3.41787916250000 
 N -4.70503579062500 1.31597210625000 7.65878116250000 
 N -4.55129879062500 4.85430510625000 7.38270816250000 
 S -5.53025779062500 0.877923106250003 6.23852516250000 
 S -5.46576579062500 4.61369510625000 6.00006116250000 
 S -2.82095679062500 1.22460010625000 3.20541116250000 
 S -2.53404179062500 5.20482110625000 3.08080816250000 
 S -3.09275479062500 1.64738610625000 7.41788316250000 
 S -3.04168279062500 5.44661510625000 7.06131716250000 
