16

 C -3.14202987187500 1.62018667500000 5.48981507500000 
 C -2.96879387187500 5.08985767500000 5.38864207500000 
 C -4.36807087187500 1.10327967500000 4.89774107500000 
 C -4.22189987187500 4.65828867500000 4.86299207500000 
 N -2.11498887187500 1.68525767500000 4.63907707500000 
 N -1.93809787187500 4.89685967500000 4.57948407500000 
 N -4.33477487187500 0.886357674999998 3.62410407500000 
 N -4.19605787187500 4.34059467500000 3.58886107500000 
 N -4.84950887187500 1.43670767500000 7.37304307500000 
 N -4.69615287187500 5.10931467500000 7.34445607500000 
 S -5.66473287187500 0.831838674999998 6.06152007500000 
 S -5.54163987187500 4.90777067500000 5.89559007500000 
 S -2.81980687187500 1.24468567500000 3.16650507500000 
 S -2.58049487187500 4.47430267500000 3.14635307500000 
 S -3.25706587187500 1.79358167500000 7.17430007500000 
 S -3.02586387187500 5.28260667500000 7.14309807500000 
