16

 C -3.01200255625000 1.58391602812500 5.42344635000000 
 C -3.19047655625000 5.13857502812500 5.59340435000000 
 C -4.27006955625000 1.23584102812500 4.85638035000000 
 C -4.46538555625000 4.87157802812500 4.94361935000000 
 N -2.07093755625000 1.62305202812500 4.51984935000000 
 N -2.15544555625000 5.31094302812500 4.77525335000000 
 N -4.20575555625000 0.893876028125000 3.59139935000000 
 N -4.33954955625000 4.72644302812500 3.64720935000000 
 N -4.59190055625000 1.34561402812500 7.36849835000000 
 N -4.98633255625000 4.68990002812500 7.39486735000000 
 S -5.56107755625000 1.08077902812500 6.00550635000000 
 S -5.75196855625000 4.34822802812500 6.01098335000000 
 S -2.66447155625000 1.18374902812500 3.04982135000000 
 S -2.78467355625000 4.99835202812500 3.21354435000000 
 S -3.02874955625000 1.90098702812500 7.14074235000000 
 S -3.40537955625000 5.11221502812500 7.32563435000000 
