16

 C -3.24317135937500 1.49600109375000 5.45344725937500 
 C -3.24395835937500 5.07613709375000 5.62961925937500 
 C -4.47312535937500 1.06217109375000 4.89003625937500 
 C -4.35396835937500 4.37301509375000 5.00875625937500 
 N -2.23341935937500 1.54254009375000 4.63494825937500 
 N -2.18414635937500 5.22910609375000 4.87072025937500 
 N -4.41572235937500 0.888708093750001 3.56691625937500 
 N -4.24366735937500 4.22598009375000 3.68309525937500 
 N -4.89481835937500 1.45206309375000 7.41617725937500 
 N -4.88302435937500 4.70685909375000 7.53156125937500 
 S -5.80137435937500 0.913816093750000 6.00104125937500 
 S -5.58938835937500 4.25614909375000 6.14618025937500 
 S -2.83552535937500 1.32335409375000 3.12192425937500 
 S -2.65788135937500 4.71494009375000 3.38902225937500 
 S -3.26222735937500 1.72708009375000 7.18547125937500 
 S -3.35542835937500 5.33811509375000 7.34048125937500 
