16

 C -3.38558161875000 1.42866858750000 5.49998642812500 
 C -3.33089861875000 5.03044058750000 5.18988542812500 
 C -4.58552061875000 0.959174587499998 4.91213442812500 
 C -4.45993961875000 4.41877758750000 4.54996942812500 
 N -2.37372361875000 1.63269058750000 4.66150442812500 
 N -2.36777361875000 5.35360458750000 4.34311642812500 
 N -4.52451861875000 0.692706587499998 3.59876142812500 
 N -4.26255661875000 4.08525358750000 3.28499842812500 
 N -5.04548861875000 1.36035358750000 7.52006142812500 
 N -5.04363461875000 4.80793958750000 7.02681542812500 
 S -5.88937161875000 0.830099587499998 6.12293642812500 
 S -5.69167361875000 3.94765558750000 5.72098542812500 
 S -2.89236561875000 1.05174658750000 3.18998842812500 
 S -2.78184761875000 4.69069658750000 2.85477642812500 
 S -3.36800961875000 1.70164758750000 7.22397942812500 
 S -3.55155261875000 5.45357758750000 6.80638142812500 
