16

 C -3.26875766562500 1.36024224062500 5.32875122812500 
 C -3.17407966562500 5.41384024062500 5.66221822812500 
 C -4.40460266562500 0.640616240625000 4.79815322812500 
 C -4.39902266562500 4.79943424062500 5.05114422812500 
 N -2.17172166562500 1.32248724062500 4.62056422812500 
 N -2.16180666562500 5.51086824062500 4.82155722812500 
 N -4.21577766562500 8.881324062499907E-002 3.59369422812500 
 N -4.26161466562500 4.46494024062500 3.75693222812500 
 N -5.05115666562500 1.61617724062500 7.12013622812500 
 N -4.99275366562500 5.17007924062500 7.45698122812500 
 S -5.73374866562500 0.563885240624999 6.02230422812500 
 S -5.70748966562500 4.47213224062500 6.11940122812500 
 S -2.59143266562500 0.578277240624999 3.19988422812500 
 S -2.69114166562500 4.81690924062500 3.38261322812500 
 S -3.46832166562500 2.03014424062500 6.88041522812500 
 S -3.41960266562500 5.73563724062500 7.40146222812500 
