16

 C -3.09708145000000 1.18981260000000 5.63324575625000 
 C -3.04090945000000 4.81435060000000 5.50169475625000 
 C -4.34873345000000 0.814685600000002 5.07352175625000 
 C -4.24102345000000 4.37125960000000 4.86852675625000 
 N -2.01851145000000 1.26613460000000 4.81975475625000 
 N -1.99252045000000 4.83966960000000 4.67381475625000 
 N -4.25586545000000 0.524642600000002 3.76197675625000 
 N -4.13118045000000 4.12412760000000 3.57968975625000 
 N -4.78346545000000 1.03087060000000 7.64484075625000 
 N -4.90329245000000 4.88730260000000 7.23012475625000 
 S -5.68641945000000 0.735185600000002 6.29445075625000 
 S -5.57238545000000 4.07443960000000 5.88226775625000 
 S -2.65403645000000 0.791339600000002 3.37392475625000 
 S -2.52830945000000 4.35930460000000 3.21053575625000 
 S -3.25686845000000 1.63013760000000 7.37552875625000 
 S -3.30573445000000 5.36859460000000 7.16880175625000 
