16

 C -2.91242345625000 1.37700908750000 5.74142803125000 
 C -3.12135745625000 5.13294108750000 5.47976903125000 
 C -4.22080445625000 1.02778808750000 5.16258903125000 
 C -4.43625145625000 4.85166808750000 4.94288203125000 
 N -1.90138145625000 1.14713508750000 4.87016903125000 
 N -2.08453845625000 5.11795508750000 4.57775903125000 
 N -4.09871445625000 0.524554087500003 3.94018503125000 
 N -4.38060245625000 4.43081508750000 3.67841503125000 
 N -4.73467245625000 1.50110008750000 7.69438503125000 
 N -4.84241945625000 4.98201108750000 7.53771403125000 
 S -5.52810045625000 0.925455087500003 6.35774603125000 
 S -5.65453745625000 4.52243308750000 6.11259203125000 
 S -2.50887645625000 0.573762087500003 3.44249103125000 
 S -2.81402145625000 4.55846708750000 3.18383903125000 
 S -3.10316145625000 1.87955408750000 7.44736003125000 
 S -3.24858045625000 5.26202008750000 7.22743503125000 
