16

 C -3.13398899375000 1.38062377500000 5.71513491875000 
 C -3.01001199375000 4.93922977500000 5.51654091875000 
 C -4.47158799375000 1.02606977500000 5.29883791875000 
 C -4.25997799375000 4.77919577500000 4.85743291875000 
 N -2.19385899375000 1.24488577500000 4.76911391875000 
 N -1.92208399375000 4.95630677500000 4.73044891875000 
 N -4.59906199375000 0.736263775000003 4.04363191875000 
 N -4.08194199375000 4.73340877500000 3.53295091875000 
 N -4.76765899375000 1.78273477500000 7.82672591875000 
 N -4.65542399375000 4.62383177500000 7.32666891875000 
 S -5.65741199375000 1.15226377500000 6.50184791875000 
 S -5.53385799375000 4.34929977500000 6.01805991875000 
 S -3.01564299375000 0.590823775000004 3.43194391875000 
 S -2.42920199375000 4.74188177500000 3.18295891875000 
 S -3.08340099375000 1.76626477500000 7.53273091875000 
 S -3.01722199375000 4.89522677500000 7.21500591875000 
