16

 C -3.53201557187500 1.75687604375000 5.32558788125000 
 C -3.21351057187500 4.92819904375000 5.72469788125000 
 C -4.64759657187500 1.17053604375000 4.67160888125000 
 C -4.48397557187500 4.69774504375000 5.11034588125000 
 N -2.50686857187500 2.18748704375000 4.59436488125000 
 N -2.20348557187500 5.04460004375000 4.89563388125000 
 N -4.38332757187500 1.00349304375000 3.37402288125000 
 N -4.37998257187500 4.44558204375000 3.81730888125000 
 N -5.32848957187500 1.01334204375000 7.06268888125000 
 N -5.05465957187500 4.97970104375000 7.59381488125000 
 S -6.03523057187500 0.717627043749998 5.56894088125000 
 S -5.88012457187500 4.71595004375000 6.18698788125000 
 S -2.85238257187500 1.54022204375000 3.04496888125000 
 S -2.85948657187500 4.77592004375000 3.36868788125000 
 S -3.77796057187500 1.76129004375000 7.04669688125000 
 S -3.43295657187500 5.16427704375000 7.47068588125000 
