16

 C -3.19920240000000 0.797122931250004 5.64889783125000 
 C -2.99336640000000 5.11206893125000 5.41068483125000 
 C -4.36977240000000 0.528344931250004 4.89136283125000 
 C -4.21845640000000 4.66643893125000 4.73303283125000 
 N -2.13968140000000 1.04294693125000 4.91356783125000 
 N -1.95126140000000 5.24435493125000 4.61326983125000 
 N -4.19163140000000 0.692921931250004 3.57321283125000 
 N -4.04222040000000 4.38300793125000 3.44941283125000 
 N -5.10590640000000 0.655096931250005 7.30192283125000 
 N -4.81283540000000 4.78262493125000 7.18047183125000 
 S -5.80294040000000 0.347912931250004 5.82420383125000 
 S -5.48504940000000 4.20241593125000 5.80009383125000 
 S -2.58394340000000 0.910453931250005 3.33940183125000 
 S -2.45675740000000 4.67671493125000 3.12569583125000 
 S -3.45422040000000 0.980950931250004 7.42333383125000 
 S -3.26716640000000 5.21097393125000 7.17496083125000 
