16

 C -2.97285951562500 1.37002905000000 5.27741912500000 
 C -3.08699051562500 5.11110005000000 5.48392512500000 
 C -4.22677151562500 1.02259905000000 4.72284612500000 
 C -4.26669051562500 4.57039805000000 4.84829512500000 
 N -2.01348851562500 1.66356605000000 4.42878612500000 
 N -2.06818251562500 5.37796305000000 4.67932912500000 
 N -4.21129551562500 0.980155049999997 3.38107412500000 
 N -4.15859551562500 4.57904705000000 3.54323012500000 
 N -4.55349451562500 1.15960005000000 7.23676612500000 
 N -5.00026351562500 4.75437005000000 7.23126312500000 
 S -5.47617651562500 0.943539049999996 5.87507512500000 
 S -5.61519851562500 4.18465805000000 5.83578312500000 
 S -2.65229751562500 1.30017005000000 2.96938712500000 
 S -2.64185151562500 5.02742005000000 3.14789712500000 
 S -2.94135651562500 1.61472705000000 6.98715812500000 
 S -3.42663151562500 5.23074505000000 7.19273112500000 
