16

 C -2.96037426250000 1.87382741250000 5.66789570000000 
 C -3.28096226250000 5.54597741250000 5.30623370000000 
 C -4.22397226250000 1.61368941250000 5.01407270000000 
 C -4.44058626250000 4.93197341250000 4.72700370000000 
 N -1.94072126250000 1.90190441250000 4.82603570000000 
 N -2.31042126250000 5.85109241250000 4.44427270000000 
 N -4.12677626250000 1.59832941250000 3.71027170000000 
 N -4.33448826250000 4.76379941250000 3.41142870000000 
 N -4.61821226250000 1.58275941250001 7.53062270000000 
 N -4.91845026250000 5.02210641250000 7.21221270000000 
 S -5.50316226250000 1.42129141250000 6.14906770000000 
 S -5.66354726250000 4.47580241250000 5.85075170000000 
 S -2.49185726250000 1.84829841250000 3.27721070000000 
 S -2.84974926250000 5.24753841250000 2.93247470000000 
 S -3.01149026250000 2.00105741250000 7.38372570000000 
 S -3.33532326250000 5.58993941250001 7.06068570000000 
