16

 C -3.31941572500000 1.27907755625000 5.28780792187500 
 C -3.20510572500000 5.33707555625000 5.57810192187500 
 C -4.55687872500000 0.716963556250002 4.77393592187500 
 C -4.38761772500000 5.21029255625000 4.76870992187500 
 N -2.33873372500000 1.44178955625000 4.41888892187500 
 N -2.12845572500000 5.61729355625000 4.86907492187500 
 N -4.49682072500000 0.516162556250002 3.44847292187500 
 N -4.20072072500000 5.13456055625000 3.45974092187500 
 N -5.02353172500000 1.02210355625000 7.25307292187500 
 N -5.16843072500000 5.05250255625000 7.31499792187500 
 S -5.82848572500000 0.450949556250002 5.93296292187500 
 S -5.75974972500000 5.04011055625000 5.71739592187500 
 S -2.93708672500000 0.906348556250002 2.90967092187500 
 S -2.55197472500000 5.40421055625000 3.26945792187500 
 S -3.43716572500000 1.59208455625000 6.99382392187500 
 S -3.50123072500000 5.20746455625000 7.33565992187500 
