16

 C -3.02076275312500 1.24891029062500 5.70658769687500 
 C -3.20322875312500 5.32959729062500 5.39442269687500 
 C -4.16439675312500 0.691474290625001 5.01157969687500 
 C -4.24051675312500 4.45574929062500 4.90153869687500 
 N -2.05275075312500 1.52136829062500 4.85841969687500 
 N -2.22879075312500 5.57608129062500 4.48861569687500 
 N -4.02336375312500 0.501084290625000 3.68588269687500 
 N -3.98047375312500 3.86236729062500 3.71389469687500 
 N -4.89337375312500 1.04638929062500 7.43048169687500 
 N -4.97393775312500 5.12334429062500 7.21471369687500 
 S -5.50355775312500 0.339139290625001 6.01605769687500 
 S -5.51676775312500 4.11858229062500 6.05189869687500 
 S -2.44563875312500 0.927838290625001 3.36007869687500 
 S -2.58957175312500 4.55244229062500 3.17590969687500 
 S -3.27043275312500 1.62723729062500 7.38635769687500 
 S -3.57028775312500 5.88321329062500 6.94991169687500 
