16

 C -2.82997035312501 1.64351438437500 5.75712779375000 
 C -3.29821035312500 5.35458738437500 5.43886579375000 
 C -4.13526235312500 1.47562538437500 5.10758979375000 
 C -4.53333635312501 4.89458838437500 4.87369079375000 
 N -1.82668135312501 1.77874238437500 4.88765779375000 
 N -2.35166435312501 5.55069038437500 4.52388679375000 
 N -4.12465035312500 1.37063238437500 3.75702479375000 
 N -4.54531935312500 4.85651038437500 3.56566379375000 
 N -4.62721135312500 1.57495138437500 7.67015179375000 
 N -5.00548835312501 5.09146038437500 7.37931179375000 
 S -5.50141135312500 1.43752038437500 6.28134779375000 
 S -5.82527735312500 4.54486238437500 6.00673779375000 
 S -2.50060435312500 1.65258638437500 3.38873679375000 
 S -3.02930935312501 5.32153738437500 3.06799079375000 
 S -2.97971835312500 1.62313638437500 7.56716479375000 
 S -3.46139135312501 5.67853238437500 7.18023779375000 
