16

 C -3.09761903125000 1.51362849375000 5.29336830937500 
 C -3.19952003125000 5.41663349375000 5.82210330937500 
 C -4.25506703125000 0.846294493750002 4.68195030937500 
 C -4.33906703125000 4.89404049375000 5.17245030937500 
 N -2.06707603125000 1.68888949375000 4.49213930937500 
 N -2.16547003125000 5.58292049375000 4.96922130937500 
 N -4.04287903125000 0.521572493750002 3.39965830937500 
 N -4.22149103125000 4.56472449375000 3.90371430937500 
 N -4.83066803125000 1.43952549375000 7.18959330937500 
 N -5.10924103125000 5.14824649375000 7.55230830937500 
 S -5.63749203125000 0.781903493750002 5.88335030937500 
 S -5.73241003125000 4.62586849375000 6.12765730937500 
 S -2.43714103125000 0.970125493750001 3.09777530937500 
 S -2.64545803125000 5.00704449375000 3.49180130937500 
 S -3.25523303125000 1.90335249375000 6.95925730937500 
 S -3.51590603125000 5.51343649375000 7.57990230937500 
