16

 C -2.97061922812500 1.55546984375000 5.61578820937500 
 C -3.03888722812500 5.29590184375000 5.57477720937500 
 C -4.14613822812500 0.961744843750001 4.99593120937501 
 C -4.27925622812500 4.91660684375000 4.93230520937500 
 N -1.94436222812500 1.84489384375000 4.84013120937500 
 N -2.02093522812500 5.36865784375000 4.73147420937500 
 N -3.99498222812500 0.807577843750002 3.67837920937500 
 N -4.21900522812500 4.65606784375000 3.63572920937500 
 N -4.74646422812500 1.48714384375000 7.42245420937500 
 N -4.84554522812500 5.37041984375000 7.37916420937501 
 S -5.43283622812500 0.785031843750001 6.06315120937500 
 S -5.60535922812500 4.86664384375000 6.01032920937500 
 S -2.45488122812500 1.28763384375000 3.32857820937500 
 S -2.62024822812500 4.99663984375000 3.18846220937500 
 S -3.17768022812500 2.09825084375000 7.22551520937500 
 S -3.26791922812500 5.74510384375000 7.30195620937501 
