16

 C -3.02782688125000 1.37078743437500 5.34173668437500 
 C -3.14323588125000 5.26646843437500 6.01247168437500 
 C -4.23788388125000 0.873424434374998 4.67213368437500 
 C -4.35553688125000 4.92705243437500 5.36021268437500 
 N -2.02096888125000 1.76331743437500 4.56338868437500 
 N -2.05388788125000 5.34686843437500 5.18271768437500 
 N -4.10180888125000 0.852476434374998 3.35248268437500 
 N -4.27421788125000 4.81638343437500 4.00760068437500 
 N -4.81442688125000 1.14092743437500 7.21329468437500 
 N -5.07877388125000 5.05550343437500 7.79520568437500 
 S -5.57948588125000 0.670820434374998 5.82797168437500 
 S -5.83609788125000 4.85097443437500 6.29558568437500 
 S -2.49064588125000 1.36588043437500 3.02994068437500 
 S -2.65697188125000 5.12928943437500 3.66059168437500 
 S -3.24309588125000 1.62655643437500 7.06225068437500 
 S -3.42116188125000 5.52752543437500 7.74091668437500 
