16

 C -2.99573091562500 1.30669750625000 5.61493415625000 
 C -3.08653191562500 5.07305450625000 5.54474215625000 
 C -4.18535591562500 0.774444506250000 4.97269015625000 
 C -4.21816691562500 4.41852650625000 4.95167915625000 
 N -1.92152491562500 1.34827450625000 4.82693915625000 
 N -2.06593691562500 5.31595250625000 4.71614015625000 
 N -4.06281691562500 0.342842506249999 3.70593015625000 
 N -4.02622691562500 3.97630550625000 3.68805215625000 
 N -4.85277391562500 1.25581450625000 7.44169515625000 
 N -4.84807491562500 4.85984450625000 7.47920815625000 
 S -5.56707491562500 0.677529506250000 6.04017515625000 
 S -5.60541791562500 4.38337150625000 6.05728815625000 
 S -2.50625491562500 0.716793506249999 3.35970615625000 
 S -2.45005991562500 4.54096050625000 3.28306715625000 
 S -3.24885391562500 1.61429550625000 7.31995815625000 
 S -3.25411591562500 5.35548950625000 7.29135315625000 
