16

 C -3.06178920000000 1.55056026875001 5.68564278437500 
 C -3.38245620000000 4.86076826875001 5.55114378437500 
 C -4.25889420000000 1.15024326875001 5.00039778437500 
 C -4.54003120000000 4.43450426875001 4.76295078437500 
 N -1.93459620000000 1.65545326875001 4.92577678437500 
 N -2.23441920000000 4.99419526875001 4.95002478437500 
 N -4.10507520000000 0.986648268750007 3.65983278437500 
 N -4.19358320000000 4.27863926875001 3.45974878437500 
 N -5.08772720000000 1.09671626875001 7.40826478437500 
 N -5.21283520000000 4.75282226875001 7.27274778437500 
 S -5.66800120000000 0.960618268750008 5.80591178437500 
 S -5.90919120000000 4.23224026875001 5.79111078437500 
 S -2.46907620000000 1.25720926875001 3.32847378437500 
 S -2.50138120000000 4.64727626875001 3.38160478437500 
 S -3.46684320000000 1.60046526875001 7.44521178437500 
 S -3.63060320000000 5.04140126875001 7.26783978437500 
