16

 C -3.07501036875000 1.25107164687500 5.68990002500000 
 C -2.96433736875000 4.87320964687500 5.45733302500000 
 C -4.33893036875000 0.896726646875003 5.00586302500000 
 C -4.18584636875000 4.39942764687500 4.88797302500000 
 N -2.07882136875000 1.33719664687500 4.82617102500000 
 N -1.93838536875000 4.94831564687500 4.60760702500000 
 N -4.24342336875000 0.726636646875003 3.70529002500000 
 N -4.06589736875000 3.90741464687500 3.64485802500000 
 N -4.77422736875000 1.24477164687500 7.55021002500000 
 N -4.72281936875000 4.99185364687500 7.41064502500000 
 S -5.60844736875000 0.839908646875003 6.22459502500000 
 S -5.51465636875000 4.31032664687500 6.09420402500000 
 S -2.60316836875000 0.916287646875003 3.30654702500000 
 S -2.50984836875000 4.30810264687500 3.15609602500000 
 S -3.13250836875000 1.56596364687500 7.40674502500000 
 S -3.13047636875000 5.32601264687500 7.06799902500000 
