16

 C -3.11011819375000 1.64274993125000 5.68525935625000 
 C -3.09830819375000 5.16461593125000 5.63005335625000 
 C -4.40395819375000 1.53818993125000 5.04386435625000 
 C -4.36912119375000 4.98113693125000 5.00337535625000 
 N -2.03410719375000 1.70792993125000 4.88086535625000 
 N -2.03775819375000 5.39147893125000 4.85072035625000 
 N -4.32620419375000 1.44034493125000 3.70471235625000 
 N -4.25847819375000 4.91185793125000 3.67339235625000 
 N -4.83538619375000 1.56659293125000 7.63799535625000 
 N -4.82617019375000 4.99121093125000 7.54712735625000 
 S -5.68020919375000 1.30622593125000 6.28489435625000 
 S -5.65186019375000 4.65563193125000 6.15396435625000 
 S -2.73424319375000 1.75073793125000 3.33843935625000 
 S -2.63983519375000 5.32268593125000 3.30082835625000 
 S -3.22726319375000 1.88993793125000 7.47889135625000 
 S -3.23244319375000 5.30629593125000 7.33541335625000 
