16

 C -3.25740907812500 1.65102718437500 5.39823151562500 
 C -3.02951707812500 4.94148918437500 5.53951751562500 
 C -4.41717607812500 1.31249118437500 4.66945251562500 
 C -4.27001507812500 4.60268818437500 4.86285451562500 
 N -2.19472107812500 1.90102518437500 4.64372751562500 
 N -1.98156507812500 5.09364918437500 4.73395051562500 
 N -4.26419407812500 1.21081518437500 3.35841951562500 
 N -4.17126907812500 4.51840318437500 3.55461851562500 
 N -4.91542607812500 1.07411918437500 7.22374751562500 
 N -4.83816807812500 4.84433718437500 7.29190451562500 
 S -5.70375007812500 0.933618184375002 5.71954951562500 
 S -5.71261207812500 4.62377818437500 5.91322751562500 
 S -2.66545907812500 1.65266718437500 3.04466751562500 
 S -2.58273407812500 4.91633018437500 3.19630851562500 
 S -3.38025007812500 1.68228718437500 7.15739051562500 
 S -3.20928507812500 5.11417918437500 7.22488951562500 
