16

 C -2.85519951875000 1.73838560000000 5.38468641875000 
 C -3.14907851875000 5.18969360000000 5.47568841875000 
 C -4.14778551875000 1.49885660000000 4.75619641875000 
 C -4.32736251875000 4.76776960000000 4.82343341875000 
 N -1.79891151875000 1.66421160000000 4.54341741875000 
 N -2.06908451875000 5.30106360000000 4.71298441875000 
 N -4.10976451875000 1.33241360000000 3.43208441875000 
 N -4.12265951875000 4.42682860000000 3.56898541875000 
 N -4.65496251875000 1.70315860000000 7.34417741875000 
 N -4.97959251875000 4.96564860000000 7.32707041875000 
 S -5.47903551875000 1.38000460000000 5.91106641875000 
 S -5.70154951875000 4.66840160000000 5.89525641875000 
 S -2.43952451875000 1.34045160000000 3.07794841875000 
 S -2.51520251875000 4.82703660000000 3.23345441875000 
 S -3.02948451875000 2.04160860000000 7.13970241875000 
 S -3.34857451875000 5.26453860000000 7.18234141875000 
