16

 C -2.87127048750000 1.22893649375000 5.54596537812500 
 C -2.88878148750000 5.12883349375000 5.66282937812500 
 C -4.12136648750000 0.881861493750001 4.87852437812500 
 C -4.05726848750000 4.57647349375000 5.03088837812500 
 N -1.89458948750000 1.45982749375000 4.69310037812500 
 N -1.95539448750000 5.47676649375000 4.77869937812500 
 N -4.00586348750000 0.633746493750000 3.58798137812500 
 N -3.96649848750000 4.31464349375000 3.72528037812500 
 N -4.80679048750000 0.995115493750001 7.29888437812500 
 N -4.68215148750000 4.63539849375000 7.47585437812500 
 S -5.52505748750000 0.693332493750001 5.86530437812500 
 S -5.47079248750000 4.34342649375000 6.02742237812500 
 S -2.35184848750000 0.845653493750000 3.20234937812500 
 S -2.47768148750000 4.86129949375000 3.30339937812500 
 S -3.18517348750000 1.30959449375000 7.28990937812500 
 S -3.21170648750000 5.37613649375000 7.35979337812500 
