16

 C -3.17109395937500 1.39796852500000 5.57000047187500 
 C -2.86243295937500 5.28253652500000 5.43621847187500 
 C -4.38849295937500 0.799419524999998 5.03939547187500 
 C -4.09324695937500 4.89136452500000 4.89325247187500 
 N -2.22597195937500 1.63921752500000 4.63858747187500 
 N -1.95687695937500 5.56572252500000 4.46779647187500 
 N -4.33099095937500 0.635686525000000 3.71121547187500 
 N -4.18626195937500 4.82408052500000 3.55803947187500 
 N -4.66924195937500 1.21146052500000 7.57652847187500 
 N -4.64166195937500 4.98218552500000 7.41848747187500 
 S -5.61027095937500 0.650581525000000 6.34138747187500 
 S -5.38610495937500 4.67719552500000 5.97202747187500 
 S -2.79742895937500 1.06699852500000 3.24480447187500 
 S -2.68043995937500 5.28154252500000 3.01730547187500 
 S -3.16955595937500 1.70408652500000 7.23833047187500 
 S -3.01758195937500 5.38940752500000 7.17952547187500 
