16

 C -3.38806088437500 1.31907084375000 5.34232062500000 
 C -3.21558888437500 5.49263384375000 5.68968162500000 
 C -4.54465988437500 0.659026843750001 4.71491162500000 
 C -4.38629088437500 5.10130684375000 4.92044862500000 
 N -2.33106788437500 1.49937284375000 4.55788362500000 
 N -2.07034088437500 5.61019184375000 5.01456762500000 
 N -4.37240088437500 0.422068843750001 3.41066062500000 
 N -4.08162188437500 5.10045484375000 3.61161762500000 
 N -5.07832088437500 1.11467584375000 7.24172362500000 
 N -5.11890688437500 5.13469384375000 7.31525562500000 
 S -5.75381388437500 0.427127843750001 5.87326162500000 
 S -5.91671488437500 5.07351384375000 5.86653862500000 
 S -2.87695788437500 1.02637284375000 3.04009662500000 
 S -2.47289788437500 5.40122384375000 3.38467662500000 
 S -3.47193988437500 1.53924484375000 7.02291962500000 
 S -3.50937088437500 5.38132784375000 7.35572962500000 
