16

 C -3.23785233437500 1.65464875625000 5.37798990312500 
 C -3.04055133437500 4.96395475625000 5.51414390312500 
 C -4.41075033437500 1.26829075625000 4.67877790312500 
 C -4.28342933437500 4.59412775625000 4.87123590312500 
 N -2.19499633437500 1.90987875625000 4.61477190312500 
 N -1.94817633437500 5.08875475625000 4.71696490312500 
 N -4.25995833437500 1.21724975625000 3.35466790312500 
 N -4.16198233437500 4.56172175625000 3.53915090312500 
 N -4.94869633437500 1.06103575625000 7.23208790312500 
 N -4.82150033437500 4.87990875625000 7.29045790312500 
 S -5.69410033437500 0.935943756249999 5.72796490312500 
 S -5.73865433437500 4.63588375625000 5.90797890312500 
 S -2.64621333437500 1.64666575625000 3.05237490312500 
 S -2.57706233437500 4.93790575625000 3.18465290312500 
 S -3.39271433437500 1.67414075625000 7.13883390312500 
 S -3.19436533437500 5.07664475625000 7.21848290312500 
