16

 C -2.87318832187500 1.99352130312500 5.57157702187500 
 C -3.19138532187500 5.44858330312500 5.31329302187500 
 C -4.11832832187500 1.64680030312500 4.95784602187500 
 C -4.30786732187500 4.81612630312500 4.64533002187500 
 N -1.90523732187500 2.18390630312500 4.68036702187500 
 N -2.22481932187500 5.82202930312500 4.49523102187500 
 N -4.10514132187500 1.57711630312500 3.63348302187500 
 N -4.11468632187500 4.62972430312500 3.36987402187500 
 N -4.59828132187500 1.65253330312500 7.42861302187500 
 N -4.93406432187500 5.03087830312500 7.16492802187500 
 S -5.45426632187500 1.41299030312500 6.03288802187500 
 S -5.61672432187500 4.59907730312500 5.74854102187500 
 S -2.48862032187500 1.84585030312500 3.18095602187500 
 S -2.65526132187500 5.28527130312500 2.97439602187500 
 S -3.07028332187500 2.19656630312500 7.28146102187500 
 S -3.31789732187500 5.34463830312500 7.01013002187500 
