16

 C -3.26025810625000 1.36964462187500 5.30967285312500 
 C -3.19008410625000 5.37242662187500 5.70063285312500 
 C -4.41140210625000 0.633689621874997 4.79459885312500 
 C -4.37330510625000 4.81132862187500 5.07650085312500 
 N -2.15284810625000 1.35347262187500 4.58012785312500 
 N -2.16366410625000 5.47894362187500 4.80343685312500 
 N -4.19525710625000 7.772362187499660E-002 3.59279285312500 
 N -4.29619410625000 4.46730762187500 3.76243985312500 
 N -5.06878310625000 1.62550962187500 7.14763785312500 
 N -4.99249410625000 5.14691562187500 7.47706485312500 
 S -5.73516410625000 0.591988621874997 6.01282685312500 
 S -5.67611710625000 4.47434562187500 6.10691585312500 
 S -2.59471510625000 0.609939621874997 3.20036685312500 
 S -2.69309510625000 4.82701562187500 3.38323885312500 
 S -3.44829810625000 2.04283462187500 6.88670785312500 
 S -3.45100510625000 5.74192162187500 7.40669985312500 
