16

 C -3.02435599687500 1.32935406562500 5.72450252187500 
 C -3.18722099687500 5.12618706562500 5.43889552187500 
 C -4.16702599687500 0.697910065625001 5.12235852187500 
 C -4.37956299687500 4.49300006562500 4.83355052187500 
 N -1.94117999687500 1.46158006562500 4.94459052187500 
 N -2.17499699687500 5.21942906562500 4.58710852187500 
 N -3.94557499687500 0.264867065625002 3.87491952187500 
 N -4.28718999687500 4.25872106562500 3.52265452187500 
 N -4.73852699687500 0.794171065625001 7.64892852187500 
 N -4.90733399687500 4.77654606562500 7.40190452187500 
 S -5.50547199687500 0.336399065625002 6.23150252187500 
 S -5.66755999687500 4.26260506562500 5.98066552187500 
 S -2.42398199687500 0.767359065625002 3.47704752187500 
 S -2.68894799687500 4.59578306562500 3.12866752187500 
 S -3.22454099687500 1.48621106562500 7.47021952187500 
 S -3.27656799687500 5.16900206562500 7.22535252187500 
