16

 C -3.40491258750000 1.28997874062500 5.30487511562500 
 C -3.21114458750000 5.48817774062500 5.67568911562500 
 C -4.56753858750000 0.689042740625001 4.70449011562500 
 C -4.36329358750000 5.11198374062500 4.87470111562500 
 N -2.35459058750000 1.46134474062500 4.52759311562500 
 N -2.09279658750000 5.62145774062500 4.99226511562500 
 N -4.38701358750000 0.391361740625001 3.39495111562500 
 N -4.09199658750000 5.11516674062500 3.58015311562500 
 N -5.02782958750000 1.10523574062500 7.25073411562500 
 N -5.12560058750000 5.12104174062500 7.28097111562500 
 S -5.75524858750000 0.433314740625001 5.87773911562500 
 S -5.92544058750000 5.06757874062500 5.85677911562500 
 S -2.89541258750000 1.01098474062500 3.04002711562500 
 S -2.47507558750000 5.40092174062500 3.35875711562500 
 S -3.47263358750000 1.55420974062500 7.03097811562500 
 S -3.50800958750000 5.34905474062500 7.36930111562500 
