16

 C -3.26150795000000 1.44897149375000 5.64624965000000 
 C -3.55322495000000 5.33998749375000 5.52555665000000 
 C -4.40618995000000 0.832379493750004 5.06450865000000 
 C -4.57334695000000 4.55497449375000 4.89089165000000 
 N -2.30574395000000 1.78991349375000 4.76766165000000 
 N -2.47757095000000 5.60198549375000 4.73138665000000 
 N -4.35583695000000 0.757733493750004 3.73404965000000 
 N -4.47895795000000 4.47949649375000 3.54866565000000 
 N -4.87077095000000 0.911642493750004 7.57959265000000 
 N -5.38410795000000 4.95390649375000 7.29034465000000 
 S -5.70176095000000 0.488364493750003 6.17195565000000 
 S -5.91998795000000 4.11314349375000 5.91448365000000 
 S -2.79517195000000 1.26548549375000 3.28226165000000 
 S -2.96288895000000 5.02958049375000 3.21872465000000 
 S -3.35172695000000 1.55783849375000 7.39326065000000 
 S -3.81604895000000 5.57856449375000 7.12648065000000 
