16

 C -2.90936020625000 1.35337903750000 5.78931079687500 
 C -3.21673520625000 4.93566903750000 5.67780079687500 
 C -4.15491520625000 1.24106403750000 5.18726479687500 
 C -4.47582520625000 4.80337703750000 5.00179579687500 
 N -1.87605920625000 1.43099603750000 4.99415779687500 
 N -2.17266020625000 4.94171603750000 4.83181879687500 
 N -4.07364220625000 1.22720303750000 3.88515079687500 
 N -4.40756820625000 4.74930203750000 3.68346879687500 
 N -4.60811320625000 1.44579603750000 7.67087879687500 
 N -5.06731020625000 4.78175103750000 7.48583979687500 
 S -5.49160120625000 1.24995903750000 6.25582079687500 
 S -5.85672120625000 4.56209103750000 6.00402079687500 
 S -2.44939420625000 1.30737103750000 3.43715179687500 
 S -2.84497520625000 4.85792603750000 3.23522879687500 
 S -2.95063220625000 1.57252403750000 7.47149179687500 
 S -3.41922720625000 5.08390203750000 7.44619479687500 
