16

 C -3.37429842187500 1.39477559062500 5.51218555625000 
 C -2.95346042187500 5.12802559062500 5.77801055625000 
 C -4.62329842187500 1.11313359062500 4.84343555625000 
 C -4.31858742187500 4.95062059062500 5.24400155625000 
 N -2.31776942187500 1.65108959062500 4.77193955625000 
 N -1.99217442187500 5.21335859062500 4.83039455625000 
 N -4.55932842187500 1.25886659062500 3.53187055625000 
 N -4.39145342187500 4.86160159062500 3.88570855625000 
 N -5.17142342187500 1.34119659062500 7.38409755625000 
 N -4.69662442187500 5.23907759062500 7.69015155625000 
 S -5.92168542187500 0.828740590625001 5.96319555625000 
 S -5.63546942187500 4.98372959062500 6.37889255625000 
 S -2.91684942187500 1.56085659062500 3.20100055625000 
 S -2.82879242187500 5.00840759062500 3.35102155625000 
 S -3.57047942187500 1.74123659062500 7.18944055625000 
 S -3.02453942187500 5.32343759062500 7.55888455625000 
