16

 C -3.19629703750000 1.43287850312500 5.58034619062500 
 C -3.28129403750000 5.29146850312500 5.45687819062500 
 C -4.32258403750000 0.897367503125001 4.83172619062500 
 C -4.34005103750000 4.68637450312500 4.72246119062500 
 N -2.17845603750000 1.65644950312500 4.70956019062500 
 N -2.18426003750000 5.53667350312500 4.76672519062500 
 N -4.20745603750000 0.626773503125002 3.54583619062500 
 N -4.04028803750000 4.41718450312500 3.42854919062500 
 N -5.05917203750000 0.828373503125001 7.25038819062500 
 N -5.15605103750000 5.03142050312500 7.17778719062500 
 S -5.67023203750000 0.429775503125001 5.77867419062500 
 S -5.67940003750000 4.18468950312500 5.85827519062500 
 S -2.71279403750000 1.20544050312500 3.14686619062500 
 S -2.46584603750000 4.95019550312500 3.22405919062500 
 S -3.50264703750000 1.43861350312500 7.33687419062500 
 S -3.58117703750000 5.59530350312500 7.09522319062500 
