16

 C -3.35856616875000 1.35155355000000 5.16893036250000 
 C -3.07748016875000 5.15847055000000 5.41480436250000 
 C -4.52230216875000 0.838111549999999 4.50009936250000 
 C -4.18388816875000 4.49327155000000 4.82515936250000 
 N -2.24206716875000 1.34662655000000 4.46500136250000 
 N -2.01056216875000 5.22783455000000 4.62626836250000 
 N -4.31018216875000 0.590415549999999 3.21203836250000 
 N -3.97259116875000 4.00526155000000 3.61920636250000 
 N -5.11329516875000 1.23958155000000 7.01361136250000 
 N -4.84045916875000 5.04387255000000 7.25153536250000 
 S -5.90148616875000 0.793282549999999 5.59499436250000 
 S -5.57850916875000 4.45150455000000 5.84659136250000 
 S -2.69011516875000 0.905211550000000 2.94868636250000 
 S -2.43290716875000 4.42679555000000 3.22205436250000 
 S -3.54617716875000 1.73157155000000 6.87082836250000 
 S -3.26537716875000 5.51983355000000 7.03267936250000 
