16

 C -3.30352602187500 0.900518771874998 5.48261905625000 
 C -3.24686102187500 5.20201777187500 5.43893405625000 
 C -4.53128802187500 0.657510771874997 4.74308305625000 
 C -4.39573802187500 4.63604477187500 4.77736705625000 
 N -2.26183202187500 1.13194877187500 4.70278805625000 
 N -2.23256502187500 5.45149277187500 4.65893005625000 
 N -4.32258302187500 0.648308771874997 3.43803905625000 
 N -4.27994902187500 4.57546577187500 3.46516705625000 
 N -5.13591402187500 0.758187771874997 7.23411505625000 
 N -5.08893802187500 4.56736277187500 7.19458105625000 
 S -5.92993902187500 0.547505771874997 5.79861105625000 
 S -5.65688402187500 3.97792677187500 5.74515705625000 
 S -2.72842902187500 0.912324771874998 3.13056205625000 
 S -2.81790002187500 5.14423177187500 3.04619005625000 
 S -3.51408502187500 0.950959771874997 7.14556505625000 
 S -3.59845502187500 5.39612977187500 7.16720705625000 
