16

 C -2.62499586875000 1.57275445000000 5.40759502812500 
 C -3.40489286875000 5.06143745000000 5.57561202812500 
 C -3.74277886875000 0.869029450000000 4.87671202812500 
 C -4.51602186875000 4.45556245000000 4.90554702812500 
 N -1.84957986875000 2.04996245000000 4.43323802812500 
 N -2.37503886875000 5.38160245000000 4.80766402812500 
 N -3.73201686875000 0.752421450000000 3.55316602812500 
 N -4.39516086875000 4.43928845000000 3.56832102812500 
 N -4.21063786875000 1.03694145000000 7.29135302812500 
 N -5.06510486875000 4.39460845000000 7.38345802812500 
 S -5.01216786875000 0.550758450000000 5.93241002812500 
 S -5.78096586875000 4.04212945000000 5.93459702812500 
 S -2.43742986875000 1.59662045000000 2.94749102812500 
 S -2.91794586875000 5.11538145000000 3.28433202812500 
 S -2.86621386875000 1.99680445000000 7.03593402812500 
 S -3.58604686875000 5.12944045000000 7.32814202812500 
