16

 C -3.11377633437500 0.897897809374999 5.61194956562500 
 C -3.27204033437500 4.84132180937500 5.26091556562500 
 C -4.35681533437500 0.745845809374999 4.92120456562500 
 C -4.46761733437500 4.28513080937500 4.62671456562500 
 N -2.08168833437500 1.19657680937500 4.76057556562500 
 N -2.28097233437500 5.11378780937500 4.40759256562500 
 N -4.31429633437500 0.746251809374999 3.56637256562500 
 N -4.31566733437500 4.10312380937500 3.32833856562500 
 N -4.94694033437500 0.745320809374999 7.46273656562500 
 N -5.08774333437500 4.71211880937500 7.15915756562500 
 S -5.68798433437500 0.498719809374999 5.99518956562500 
 S -5.83731433437500 4.06179980937500 5.73499056562500 
 S -2.71677933437500 0.983455809374999 3.26793456562500 
 S -2.79770633437500 4.67230780937500 2.94020456562500 
 S -3.25937933437500 0.870759809375000 7.35439156562500 
 S -3.54891233437500 5.32575380937500 6.88045956562500 
