16

 C -3.02777099687500 1.85417408437500 5.81786162812500 
 C -3.07880799687500 5.33554508437500 5.69528062812500 
 C -4.32560999687500 1.69058808437500 5.14516562812500 
 C -4.35496199687500 5.08177708437500 5.04511062812500 
 N -2.00563599687500 2.04380908437500 4.95740262812500 
 N -2.14151999687500 5.52407208437500 4.79288762812500 
 N -4.29487199687500 1.51820108437500 3.79547062812500 
 N -4.36637999687500 4.85257408437500 3.72433862812500 
 N -4.75363999687500 1.38362608437500 7.61104262812500 
 N -4.80682699687500 5.04000708437500 7.54860062812500 
 S -5.63522699687500 1.43153208437500 6.22457862812500 
 S -5.62827699687500 4.79016008437500 6.13545762812500 
 S -2.69802899687500 1.63676808437500 3.49013462812500 
 S -2.76131499687500 5.17361708437500 3.27396162812500 
 S -3.15998499687500 1.79645608437500 7.50581762812500 
 S -3.15759999687500 5.32270408437500 7.47078762812500 
