16

 C -2.98934559062500 1.65441189375000 5.42364120937500 
 C -3.11363259062500 5.17871689375000 5.64874220937500 
 C -4.31482659062500 1.37254089375000 4.92640120937500 
 C -4.28244959062500 4.72625289375000 4.93821320937500 
 N -2.05115159062500 1.90997789375000 4.53570520937500 
 N -2.07220959062500 5.54314889375000 4.92092420937500 
 N -4.25022059062500 1.17167989375000 3.60994720937500 
 N -4.01328559062500 4.59888689375000 3.62458020937500 
 N -4.48088359062500 1.25051389375000 7.40790020937500 
 N -4.84076459062500 4.77590889375000 7.44559220937500 
 S -5.55250859062500 1.21936389375000 6.11809820937500 
 S -5.62554159062500 4.50630089375000 6.02313920937500 
 S -2.66996159062500 1.34258889375000 3.12937320937500 
 S -2.47431859062500 5.09616389375000 3.38691220937500 
 S -2.91224259062500 1.64481689375000 7.14820720937500 
 S -3.25976959062500 5.33094989375000 7.36297320937500 
