16

 C -2.98952286250000 1.54962390000000 5.71995404687500 
 C -3.09996686250000 4.63035190000000 5.55231304687500 
 C -4.27804786250000 1.10620190000000 5.11012604687500 
 C -4.37724186250000 4.33890190000000 4.86196004687500 
 N -1.94109086250000 1.68057590000000 4.87141504687500 
 N -2.05445686250000 4.68034690000000 4.71164604687500 
 N -4.18368586250000 0.941142900000003 3.78918604687500 
 N -4.26015986250000 4.20811990000000 3.53862704687500 
 N -4.81301586250000 1.50886390000000 7.58876204687500 
 N -4.86420486250000 4.52568890000000 7.35578704687500 
 S -5.64084886250000 1.22151390000000 6.17599204687500 
 S -5.74015886250000 4.21703690000000 5.96120004687500 
 S -2.62480386250000 1.22940790000000 3.42832704687500 
 S -2.62972086250000 4.45290190000000 3.19415104687500 
 S -3.12313486250000 1.71661290000000 7.45167604687500 
 S -3.21734086250000 4.69979990000000 7.28920504687500 
