16

 C -2.96144292500000 1.45651330312500 5.57948972812500 
 C -2.97461792500000 5.08708230312500 5.16388072812500 
 C -4.12495292500000 0.968705303124999 4.84198172812500 
 C -4.30978492500000 4.78047630312500 4.59313672812500 
 N -1.86873692500000 1.42052130312500 4.80264772812500 
 N -1.99192192500000 4.92518030312500 4.30895472812500 
 N -3.98946892500000 0.666319303124999 3.56269872812500 
 N -4.32001792500000 4.71315530312500 3.28370672812500 
 N -4.85676392500000 1.43448430312500 7.26434972812500 
 N -4.73158692500000 5.15020930312500 7.15581672812500 
 S -5.57043592500000 0.896730303125000 5.83180572812500 
 S -5.61445192500000 4.81141230312500 5.77366072812500 
 S -2.35509492500000 0.982915303124999 3.28357372812500 
 S -2.66998792500000 4.63525330312500 2.82211572812500 
 S -3.25028192500000 1.76294730312500 7.25635072812500 
 S -3.09036692500000 5.31845730312500 6.90062672812500 
