16

 C -3.26596071250000 1.30676905000000 5.55904537187500 
 C -3.25693171250000 5.12291105000000 5.29546237187500 
 C -4.52731771250000 1.11700505000000 4.86590937187500 
 C -4.47151171250000 4.66255005000000 4.73258337187500 
 N -2.21487571250000 1.23618105000000 4.75274137187500 
 N -2.19882971250000 5.04919805000000 4.45709437187500 
 N -4.43270371250000 1.01712105000000 3.54756337187500 
 N -4.37783071250000 4.23060405000000 3.49892837187500 
 N -5.10390271250000 1.26858905000000 7.35672437187500 
 N -4.98627371250000 4.93446605000000 7.19367537187500 
 S -5.93682871250000 1.07908205000000 5.90820237187500 
 S -5.80874571250000 4.49330505000000 5.77885737187500 
 S -2.76428671250000 0.957922050000003 3.23698237187500 
 S -2.80724171250000 4.43648305000000 3.02173737187500 
 S -3.44880071250000 1.40177205000000 7.25056837187500 
 S -3.45225771250000 5.48127905000000 6.98968837187500 
