16

 C -3.33582449062500 1.20004398125000 5.44006645000000 
 C -3.21733849062500 5.21467798125000 5.12500945000000 
 C -4.45242349062500 0.587232981250000 4.77731445000000 
 C -4.20900849062500 4.43278298125000 4.43927945000000 
 N -2.30262049062500 1.48330898125000 4.65693045000000 
 N -2.32492649062500 5.73010998125000 4.29596545000000 
 N -4.22949349062500 0.469562981249999 3.47381345000000 
 N -4.08761349062500 4.33053098125000 3.11074345000000 
 N -5.14795749062500 0.842107981250000 7.20526045000000 
 N -4.83776349062500 4.26502498125000 6.87691045000000 
 S -5.78103449062500 0.203715981249999 5.83974645000000 
 S -5.46476349062500 3.89204798125000 5.42963245000000 
 S -2.75503149062500 1.15182598125000 3.08363245000000 
 S -2.72781549062500 5.16282898125000 2.71694245000000 
 S -3.61206049062500 1.43274698125000 7.12984645000000 
 S -3.47906049062500 5.22400598125000 6.82083945000000 
