16

 C -2.94208851875000 1.43186971562500 5.55872032187500 
 C -3.02128451875000 5.11854571562500 5.14350232187500 
 C -4.12640151875000 0.940811715625001 4.84640732187500 
 C -4.33660251875000 4.77524271562500 4.58431532187500 
 N -1.90250251875000 1.42762171562500 4.77789232187500 
 N -1.98658851875000 4.97500071562500 4.29761232187500 
 N -3.99499051875000 0.702799715625001 3.56350832187500 
 N -4.31697651875000 4.69286071562500 3.26101332187500 
 N -4.88815551875000 1.46681971562500 7.23381332187500 
 N -4.74526551875000 5.11242671562500 7.18213732187500 
 S -5.52450051875000 0.896381715625001 5.82875232187500 
 S -5.61299951875000 4.80775471562500 5.75521232187500 
 S -2.31998251875000 0.961827715625001 3.28592832187500 
 S -2.68034951875000 4.65860071562500 2.79599732187500 
 S -3.26333151875000 1.73700771562500 7.28980932187500 
 S -3.08613551875000 5.32423371562500 6.92092132187500 
