16

 C -3.72721062812500 1.09397557187500 5.62686734062500 
 C -3.04791462812500 5.02073057187500 5.32511234062500 
 C -4.82210562812500 0.536084571875000 4.94265234062500 
 C -4.28111762812500 4.40692257187500 4.84113934062500 
 N -2.73347762812500 1.54184057187500 4.85714934062500 
 N -2.04475162812500 5.12323857187500 4.45403734062500 
 N -4.67812762812500 0.529558571875000 3.60980934062500 
 N -4.20491562812500 4.23096957187500 3.51824434062500 
 N -5.58751062812500 0.660672571875001 7.42406734062500 
 N -4.74415562812500 5.00050757187500 7.29965734062500 
 S -6.18694262812500 0.169581571875001 5.98827034062500 
 S -5.55797962812500 4.25261957187500 6.06073634062500 
 S -3.13371062812500 1.10873957187500 3.27181134062500 
 S -2.67770462812500 4.50032857187500 2.99937234062500 
 S -4.05471262812500 1.18319657187500 7.41806534062500 
 S -3.17259862812500 5.45302257187500 7.00264234062500 
