16

 C -3.18092558750000 1.24205892500000 5.72670601562500 
 C -3.12262558750000 5.24387492500000 5.58552801562500 
 C -4.47568258750000 1.00949492500000 5.12588101562500 
 C -4.30539258750000 4.68549092500000 4.97554301562500 
 N -2.21390258750000 1.23520792500000 4.82695501562500 
 N -2.17819558750000 5.51145792500000 4.69534201562500 
 N -4.43379958750000 0.696124925000002 3.82227801562500 
 N -4.29632658750000 4.56061092500000 3.64650401562500 
 N -4.94715858750000 1.47486992500000 7.60897901562500 
 N -4.97959658750000 5.06296792500000 7.44542401562500 
 S -5.76188658750000 1.15023892500000 6.25281301562500 
 S -5.71583458750000 4.52720092500000 6.01621101562500 
 S -2.85038558750000 0.935397925000002 3.34520701562500 
 S -2.77765358750000 5.06630592500000 3.20324501562500 
 S -3.31240958750000 1.51084692500000 7.49971801562500 
 S -3.32475858750000 5.43674292500000 7.31210701562500 
