16

 C -3.10068322187500 1.50592199062500 5.57061733125000 
 C -3.31691822187500 5.16773199062500 5.20744833125000 
 C -4.27692722187500 1.04443099062500 4.78019533125000 
 C -4.39100822187500 4.40954799062500 4.62945233125000 
 N -1.97091622187500 1.57681499062500 4.89568633125000 
 N -2.19166322187500 5.16741699062500 4.47365333125000 
 N -3.97005022187500 0.825853990625003 3.51853133125000 
 N -4.16646322187500 3.90498799062500 3.42401733125000 
 N -5.04346322187500 1.20898599062500 7.22896233125000 
 N -5.35842722187500 5.30422599062500 6.82727333125000 
 S -5.71336722187500 0.876960990625003 5.69008733125000 
 S -5.75962522187500 4.24618699062500 5.60354133125000 
 S -2.33042022187500 1.20214699062500 3.34749733125000 
 S -2.56143622187500 4.40184099062500 3.02991033125000 
 S -3.41454122187500 1.64600399062500 7.25988033125000 
 S -3.75892022187500 5.75881699062500 6.83514033125000 
