16

 C -3.13026468750000 1.27345470625000 5.41768787812500 
 C -3.26898768750000 5.36476270625000 5.58361587812500 
 C -4.31258468750000 0.604546706250001 4.86355287812500 
 C -4.38467968750000 4.74477370625000 4.98705887812500 
 N -2.08510768750000 1.24111970625000 4.57873187812500 
 N -2.18095768750000 5.60700270625000 4.80462287812500 
 N -4.23926968750000 0.117429706250000 3.61184387812500 
 N -4.17665468750000 4.33239270625000 3.71749487812500 
 N -5.10023568750000 1.39027170625000 7.19992287812500 
 N -4.93664768750000 5.19782970625000 7.52230187812500 
 S -5.69198068750000 0.519739706250000 5.86156987812500 
 S -5.70354568750000 4.67610170625000 6.15185187812500 
 S -2.62825968750000 0.411808706250000 3.21436587812500 
 S -2.58746268750000 4.91904670625000 3.37466287812500 
 S -3.53176268750000 1.99080970625000 6.99411087812500 
 S -3.39568868750000 5.66619370625000 7.27961787812500 
