16

 C -3.14072610625000 1.57293379375000 5.36228963437500 
 C -3.07293310625000 4.90533779375000 5.46427963437500 
 C -4.36082010625000 1.16240279375000 4.70176563437500 
 C -4.29751210625000 4.87097179375000 4.76173063437500 
 N -2.11468010625000 1.93314679375000 4.61805163437500 
 N -2.03356710625000 5.15511579375000 4.65731663437500 
 N -4.19397110625000 1.10860179375000 3.38765163437500 
 N -4.21030110625000 4.80169179375000 3.39864763437500 
 N -4.95361510625000 1.12248079375000 7.19073863437500 
 N -4.89059210625000 5.00632179375000 7.35625363437500 
 S -5.76800510625000 0.877099793750001 5.73415363437500 
 S -5.60144410625000 4.70844779375000 5.88825363437500 
 S -2.67577810625000 1.56445579375000 2.98694763437500 
 S -2.57222710625000 5.01891579375000 3.08031563437500 
 S -3.42702010625000 1.62134479375000 7.08175163437500 
 S -3.20791510625000 4.88533179375000 7.19178563437500 
