16

 C -3.30937525625000 1.34584656562500 5.50032610000000 
 C -3.41659225625000 5.04207256562500 5.19487210000000 
 C -4.48530325625000 0.840736565625002 4.92522910000000 
 C -4.62819125625000 4.62226556562500 4.57256510000000 
 N -2.30759325625000 1.61400156562500 4.64140010000000 
 N -2.40265325625000 5.30351956562500 4.38057910000000 
 N -4.43310825625000 0.550004565625002 3.60434510000000 
 N -4.44181425625000 4.35889256562500 3.28316310000000 
 N -5.02981825625000 0.897420565625002 7.54056610000000 
 N -5.14132525625000 4.58673856562500 7.10208510000000 
 S -5.79738725625000 0.596631565625002 6.05404710000000 
 S -5.88410725625000 4.22735456562500 5.64942710000000 
 S -2.92730225625000 1.06523956562500 3.15270910000000 
 S -2.92161825625000 4.85947756562500 2.83655310000000 
 S -3.53698125625000 1.61635256562500 7.30862610000000 
 S -3.56227425625000 5.11986556562500 6.98136710000000 
