16

 C -2.82663558125000 1.30158574687500 5.65384754687500 
 C -2.95965558125000 4.83933374687500 5.37539754687500 
 C -4.21491858125000 1.14483974687500 5.23423154687500 
 C -4.21001258125000 4.52011374687500 4.69494354687500 
 N -1.95617858125000 0.927145746874996 4.74326554687500 
 N -1.84688658125000 4.91582274687500 4.66094954687500 
 N -4.32276058125000 0.670074746874996 4.00994654687500 
 N -3.99491358125000 4.28104674687500 3.36136854687500 
 N -4.56432358125000 1.71376974687500 7.72483854687500 
 N -4.65242658125000 4.89976274687500 7.22378954687500 
 S -5.48876558125000 1.41209074687500 6.30815254687500 
 S -5.54302758125000 4.55102674687500 5.89545054687500 
 S -2.89354058125000 0.578455746874996 3.40331054687500 
 S -2.36851858125000 4.52529774687500 3.14821554687500 
 S -2.88539758125000 1.53614574687500 7.43131454687500 
 S -3.03386958125000 4.81335374687500 7.10482254687500 
