16

 C -3.01963614062500 1.60076783750000 5.50346840937500 
 C -3.07440514062500 5.31230583750000 5.51480940937500 
 C -4.23624714062500 1.19346683750000 4.79651740937500 
 C -4.31027414062500 5.05332183750000 4.80675440937500 
 N -1.96577014062500 1.78763583750000 4.70662240937500 
 N -2.01622514062500 5.31991383750000 4.70580440937500 
 N -4.07285614062500 0.928638837499998 3.48106440937500 
 N -4.16428114062500 4.81957583750000 3.49050540937500 
 N -4.84585214062500 1.40396483750000 7.39387240937500 
 N -4.75552014062500 5.11465383750000 7.35079140937500 
 S -5.56403814062500 0.973759837499998 5.97453540937500 
 S -5.63578314062500 4.85574983750000 5.98221540937500 
 S -2.53600314062500 1.36940283750000 3.15086240937500 
 S -2.57733214062500 5.09706383750000 3.18425440937500 
 S -3.19212014062500 1.80107183750000 7.25988340937500 
 S -3.14409314062500 5.52514383750000 7.21754040937500 
