16

 C -3.36031095625000 1.56266254687500 5.42459272187500 
 C -3.05687595625000 5.54609554687500 5.63133872187500 
 C -4.50871995625000 0.999644546875004 4.78056872187500 
 C -4.23165195625000 5.01596354687500 5.01145672187500 
 N -2.31316095625000 1.83179854687500 4.68759672187500 
 N -2.13841195625000 6.02324954687500 4.76252972187500 
 N -4.23554995625000 0.622894546875004 3.52135672187500 
 N -4.06680195625000 4.75266654687500 3.69262572187500 
 N -5.17826595625000 1.17432554687500 7.27353772187500 
 N -4.83879295625000 5.10989554687500 7.50124172187500 
 S -5.93352595625000 0.744645546875003 5.82905672187500 
 S -5.56919495625000 4.57217854687500 6.09240072187500 
 S -2.66865895625000 1.01335454687500 3.22982172187500 
 S -2.65936795625000 5.54082154687500 3.25806172187500 
 S -3.61335395625000 1.72945954687500 7.15485072187500 
 S -3.20440795625000 5.65807154687500 7.31596472187500 
