16

 C -3.18394068437500 1.14769462187500 5.62434185937500 
 C -3.08500068437500 5.06758462187500 5.57844285937500 
 C -4.42583368437500 0.709435621875001 4.96893585937500 
 C -4.31709468437500 4.71589362187500 4.90601585937500 
 N -2.14892168437500 1.37334662187500 4.80053785937500 
 N -2.11451068437500 5.34218662187500 4.74199085937500 
 N -4.37201568437500 0.639344621875001 3.60017385937500 
 N -4.22086568437500 4.53090062187500 3.58754485937500 
 N -4.98795968437500 1.11218762187500 7.44079985937500 
 N -4.72416468437500 4.64498862187500 7.42952385937500 
 S -5.73879768437500 0.451131621875001 6.10664985937500 
 S -5.54076568437500 4.32978062187500 6.07129185937500 
 S -2.75590068437500 1.01848062187500 3.28784985937500 
 S -2.63946068437500 4.98012862187500 3.22993685937500 
 S -3.39327968437500 1.47160462187500 7.32200085937500 
 S -3.21003868437500 5.19964262187500 7.33118285937500 
