16

 C -3.12987688750000 1.41008840937500 5.91081997187500 
 C -3.11831488750000 4.96837940937500 5.72207397187500 
 C -4.33299888750000 0.954806409374997 5.35071997187500 
 C -4.25207388750000 4.47581440937500 5.03297097187500 
 N -2.22425688750000 1.58315840937500 4.95136697187500 
 N -2.05546488750000 5.26801140937500 4.97228597187500 
 N -4.40865788750000 0.731012409374997 4.02937997187500 
 N -4.04793888750000 4.41049340937500 3.70825297187500 
 N -4.94563088750000 1.32151540937500 7.77583797187500 
 N -4.89427588750000 4.90184240937500 7.55803297187500 
 S -5.73322988750000 1.04207940937500 6.34793497187500 
 S -5.60866988750000 4.40875540937500 6.15248597187500 
 S -2.93602588750000 1.11644240937500 3.45200197187500 
 S -2.52964788750000 5.03660240937500 3.43638797187500 
 S -3.36525588750000 1.78312040937500 7.67109797187500 
 S -3.19813388750000 5.23011040937500 7.35486897187500 
