16

 C -3.32414037812500 1.28448009375000 5.26439942500000 
 C -3.20668337812500 5.34507409375000 5.57872942500000 
 C -4.53449337812500 0.709153093750003 4.77362742500000 
 C -4.35163137812500 5.18132409375000 4.76053142500000 
 N -2.30857737812500 1.45269309375000 4.41017142500000 
 N -2.13184337812500 5.58247409375000 4.86092142500000 
 N -4.50823437812500 0.556394093750003 3.45928042500000 
 N -4.20893937812500 5.15179709375000 3.46906942500000 
 N -5.01597237812500 1.02744109375000 7.27201042500000 
 N -5.14732037812500 5.03826109375000 7.29571542500000 
 S -5.83685637812500 0.456064093750002 5.93000942500000 
 S -5.74813337812500 5.03599309375000 5.70705342500000 
 S -2.95500337812500 0.895655093750003 2.90037642500000 
 S -2.57464437812500 5.40764609375000 3.24930942500000 
 S -3.43879737812500 1.59110209375000 6.98574042500000 
 S -3.50033137812500 5.18724009375000 7.30472242500000 
