16

 C -3.08128982500000 1.36766522812500 5.47046222812500 
 C -3.33998382500000 5.31431522812500 5.17797222812500 
 C -4.28800682500000 0.804623228125001 4.88261522812500 
 C -4.35343082500000 4.40972822812500 4.64553122812500 
 N -2.08904182500000 1.65095622812500 4.63902222812500 
 N -2.35046782500000 5.53035622812500 4.32837822812500 
 N -4.16642382500000 0.545474228125001 3.56426522812500 
 N -4.11704682500000 3.92953022812500 3.44684322812500 
 N -4.78942882500000 1.21905522812500 7.39644022812500 
 N -5.17089082500000 4.94732122812500 6.97847522812500 
 S -5.58399982500000 0.649435228125001 5.99051922812500 
 S -5.75672182500000 4.09969222812500 5.65397822812500 
 S -2.59845382500000 1.11257022812500 3.18403922812500 
 S -2.64675382500000 4.67399022812500 2.89985122812500 
 S -3.21034582500000 1.75009122812500 7.12230022812500 
 S -3.74912682500000 5.73219722812500 6.84026422812500 
