16

 C -2.91842636875000 1.57548446562500 5.40316198437500 
 C -3.49509936875000 5.05706146562500 5.17226798437500 
 C -4.03696236875000 0.985451465625001 4.69911898437500 
 C -4.58652436875000 4.32332646562500 4.62781198437500 
 N -1.83510336875000 1.69282646562500 4.63273798437500 
 N -2.37793736875000 5.13255546562500 4.42567598437500 
 N -3.92202936875000 0.829772465625002 3.37707598437500 
 N -4.37728936875000 3.94126346562500 3.37416098437500 
 N -4.78602036875000 1.41799146562500 7.22845898437500 
 N -5.37328236875000 5.09430946562500 6.89051198437500 
 S -5.37887736875000 0.784796465625002 5.82445398437500 
 S -5.95503436875000 4.08661346562500 5.75434198437500 
 S -2.31057436875000 1.11284446562500 3.16195698437500 
 S -2.77653136875000 4.41659046562500 3.00114798437500 
 S -3.27809336875000 2.05570046562500 7.06634798437500 
 S -3.86105336875000 5.71098846562500 6.72751498437500 
