16

 C -3.19392192812500 1.54283901875000 5.46256458437500 
 C -3.18238592812500 5.22475901875000 5.93659958437500 
 C -4.39122592812500 1.07918501875000 4.82491758437500 
 C -4.47727592812500 4.99241301875000 5.28299258437500 
 N -2.20803892812500 1.87481201875000 4.62468158437500 
 N -2.11852992812500 5.30897001875000 5.14517658437500 
 N -4.32566492812500 1.06272601875000 3.52972958437500 
 N -4.29025192812500 4.85456801875000 3.97730858437500 
 N -5.01556092812500 0.973021018749998 7.27762758437500 
 N -4.78343492812500 5.10427801875000 7.84374958437500 
 S -5.70460192812499 0.703421018749999 5.81578758437500 
 S -5.79339292812500 4.99109301875000 6.51959858437500 
 S -2.79243392812500 1.41769601875000 3.06451758437500 
 S -2.71858892812500 5.05029701875000 3.58749758437500 
 S -3.41841892812500 1.47624101875000 7.24434858437500 
 S -3.17011392812500 5.38707101875000 7.61356558437500 
