16

 C -3.16608235312500 1.49535354062500 5.62605685312500 
 C -3.28014435312500 5.06467854062500 5.35829285312500 
 C -4.34555535312500 1.12907454062500 4.95393485312500 
 C -4.45415135312500 4.63082054062500 4.63176685312500 
 N -2.07949435312500 1.56196254062500 4.87879685312500 
 N -2.18405635312500 5.06585654062500 4.58622885312500 
 N -4.16204435312500 0.825787540625003 3.69183985312500 
 N -4.23876435312500 4.18413654062500 3.38571685312500 
 N -4.97353435312500 1.30017754062500 7.35635685312500 
 N -5.24154835312500 5.20227554062500 7.02988985312500 
 S -5.74248735312500 1.02387154062500 5.88220685312500 
 S -5.85727535312500 4.63056154062500 5.62602185312500 
 S -2.56137935312500 1.16935454062500 3.31743385312500 
 S -2.65715635312500 4.49839554062500 3.06767185312500 
 S -3.39204735312500 1.78923454062500 7.32857485312500 
 S -3.62864035312500 5.40756954062500 7.06101785312500 
