16

 C -3.26872952812500 1.67573090625000 5.44341869062500 
 C -2.99217352812500 5.28235490625000 5.83004769062500 
 C -4.31359452812500 0.945029906250001 4.78687269062500 
 C -4.27254052812500 4.85230990625000 5.27263769062500 
 N -2.29127552812500 1.97855890625000 4.66236569062500 
 N -2.04840552812500 5.60643390625000 4.92557669062500 
 N -4.09982552812500 0.749538906250001 3.50727669062500 
 N -4.21894852812500 4.70720990625000 3.93208869062500 
 N -4.99117852812500 1.00239490625000 7.31988469062500 
 N -4.62572052812500 5.08741090625000 7.72877369062500 
 S -5.62833552812500 0.346778906250001 5.87593169062500 
 S -5.56472452812500 4.65111590625000 6.49242369062500 
 S -2.70245052812500 1.48393390625000 3.12940569062500 
 S -2.71414952812500 5.17659890625000 3.45269269062500 
 S -3.40645852812500 1.62835590625000 7.16201469062500 
 S -3.01124852812500 5.44225890625000 7.58046969062500 
