16

 C -3.08162934687500 1.39744410625000 5.48042003750000 
 C -3.40274834687500 5.21254610625000 5.12746903750000 
 C -4.22551834687500 0.881280106249998 4.81504803750000 
 C -4.43050534687500 4.38085910625000 4.53919503750000 
 N -1.99946934687500 1.55006510625000 4.74871203750000 
 N -2.29248534687500 5.39195410625000 4.39258903750000 
 N -4.03585234687500 0.664238106249998 3.52449403750000 
 N -4.04357434687500 3.91464910625000 3.34503403750000 
 N -4.82270934687500 1.11740410625000 7.28995403750000 
 N -5.19045634687500 4.96081710625000 7.00355303750000 
 S -5.62285734687500 0.705733106249999 5.92759503750000 
 S -5.73988234687500 4.11114410625000 5.69869303750000 
 S -2.52526734687500 1.14347610625000 3.20027303750000 
 S -2.60573534687500 4.59306010625000 2.97485703750000 
 S -3.27961934687500 1.75372310625000 7.20783603750000 
 S -3.75525034687500 5.81306810625000 6.74806503750000 
