16

 C -3.15664764375000 1.22470582187500 5.67537499687500 
 C -3.07780064375000 5.25376482187500 5.51916499687500 
 C -4.39749664375000 1.12448082187500 5.00532599687500 
 C -4.24500464375000 4.75926782187500 4.84722099687500 
 N -2.13892664375000 1.48867282187500 4.88785799687500 
 N -2.05079064375000 5.37139282187500 4.67529399687500 
 N -4.36297564375000 1.31718382187500 3.69525499687500 
 N -4.19702064375000 4.72808682187500 3.49391799687500 
 N -4.99822364375000 0.961573821875000 7.42274799687500 
 N -4.90202564375000 4.97978482187500 7.28612399687500 
 S -5.84104264375000 1.00849482187500 5.97064099687500 
 S -5.61447164375000 4.61916482187500 5.84406899687500 
 S -2.78521864375000 1.52905382187500 3.31517999687500 
 S -2.61618764375000 5.15318582187500 3.13760599687500 
 S -3.39417864375000 1.33946382187500 7.40408099687500 
 S -3.33386564375000 5.58239782187500 7.27625999687500 
