16

 C -3.20137135937500 1.30766692812500 5.56712715625000 
 C -3.17184035937500 4.85513392812500 5.67073615625000 
 C -4.45063735937500 0.835338928125000 5.10559515625000 
 C -4.39082735937500 4.48684392812500 4.99558515625000 
 N -2.19472935937500 1.34401492812500 4.69841915625000 
 N -2.14582035937500 5.07518292812500 4.81635415625000 
 N -4.39953835937500 0.411698928124999 3.86568215625000 
 N -4.27327735937500 4.16237292812500 3.68753415625000 
 N -4.76347035937500 1.22613792812500 7.56363515625000 
 N -4.92282235937500 4.89374092812500 7.53071915625000 
 S -5.76730635937500 0.855086928125000 6.25869015625000 
 S -5.68646835937500 4.29521192812500 6.15555815625000 
 S -2.83308635937500 0.750742928125000 3.35015915625000 
 S -2.64972335937500 4.48333792812500 3.36135915625000 
 S -3.25940935937500 1.69197792812500 7.23074615625000 
 S -3.23753035937500 5.17029392812500 7.35493615625000 
