16

 C -3.29853245312500 1.05554025937500 5.68220869375000 
 C -2.87679645312500 4.98513125937500 5.52185469375000 
 C -4.48764845312500 0.574006259375000 4.94008469375000 
 C -4.04266845312500 4.47289825937500 4.88598669375000 
 N -2.27497245312500 1.45097225937500 4.88089269375000 
 N -1.87677845312500 5.31202025937500 4.69880669375000 
 N -4.27279445312500 0.415440259375000 3.61761369375000 
 N -3.92801945312500 4.31707725937500 3.56864069375000 
 N -5.13705245312500 0.717682259375001 7.49259969375000 
 N -4.70962145312500 4.67207125937500 7.39265069375000 
 S -5.85201545312500 0.354628259375001 5.98013669375000 
 S -5.40766745312500 4.36964625937500 5.92384469375000 
 S -2.64714245312500 0.856640259375000 3.35169869375000 
 S -2.44877645312500 4.91290425937500 3.13347169375000 
 S -3.49657145312500 1.11592825937500 7.47173569375000 
 S -3.11250845312500 5.22351625937500 7.26302469375000 
