16

 C -2.91990311250000 1.37798305000000 5.55592456875000 
 C -3.10659211250000 5.18208605000000 5.13570556875000 
 C -4.11924411250000 0.994803049999997 4.86118456875000 
 C -4.36779111250000 4.78743105000000 4.61558956875000 
 N -1.77114111250000 1.40780105000000 4.83735656875000 
 N -2.08024011250000 5.26033005000000 4.29872456875000 
 N -3.91408011250000 0.707809049999997 3.57007456875000 
 N -4.31408411250000 4.50779805000000 3.29814056875000 
 N -4.92490411250000 1.53473905000000 7.23247056875000 
 N -4.70953211250000 4.90315805000000 7.08330256875000 
 S -5.59934511250000 0.856123049999997 5.84286956875000 
 S -5.63693011250000 4.81449005000000 5.74050956875000 
 S -2.29949611250000 0.945009049999997 3.25887056875000 
 S -2.71773811250000 4.87841305000000 2.84477256875000 
 S -3.26392011250000 1.60556705000000 7.24972256875000 
 S -3.14123111250000 5.35850305000000 6.87195556875000 
