16

 C -3.10997710625000 1.03015728437500 5.51635342500000 
 C -3.12145510625000 5.48909328437500 5.58836642500000 
 C -4.44027310625000 0.872970284375000 4.83406842500000 
 C -4.23894310625000 4.91409228437500 4.85108542500000 
 N -2.08869810625000 1.06303428437500 4.69375042500000 
 N -2.09659610625000 5.78434428437500 4.80283942500000 
 N -4.34592210625000 0.742688284375000 3.51383642500000 
 N -4.01201710625000 4.63787428437500 3.54212242500000 
 N -4.91053510625000 1.15656328437500 7.36968242500000 
 N -4.95468010625000 5.15929628437500 7.40257942500000 
 S -5.73970510625000 0.722277284375000 5.97995742500000 
 S -5.49112110625000 4.44960628437500 5.92070542500000 
 S -2.76382310625000 1.06710928437500 3.19998242500000 
 S -2.42632910625000 5.26084228437500 3.27666742500000 
 S -3.25677510625000 1.44026428437500 7.19313642500000 
 S -3.52666510625000 5.99636728437500 7.19114842500000 
