16

 C -3.07358256875000 0.979773778125000 5.58633744062500 
 C -3.31023656875000 4.85755077812500 5.23232644062500 
 C -4.35298856875000 0.735370778125000 4.98228444062500 
 C -4.49545556875000 4.31181677812500 4.62449144062500 
 N -2.09350556875000 1.18848477812500 4.74363144062500 
 N -2.34728656875000 5.19732877812500 4.37347544062500 
 N -4.28473956875000 0.646911778125000 3.67795944062500 
 N -4.36159856875000 4.01670977812500 3.31809844062500 
 N -4.90667056875000 0.767565778125000 7.50550744062500 
 N -5.14609956875000 4.73096477812500 7.03969844062500 
 S -5.67631156875000 0.536092778125000 6.07064444062500 
 S -5.85929656875000 4.02529277812500 5.71847944062500 
 S -2.74790656875000 1.06045477812500 3.19537044062500 
 S -2.87373356875000 4.61874077812500 2.86665344062500 
 S -3.28537756875000 0.887865778125000 7.31169444062500 
 S -3.59757856875000 5.28123677812500 6.91199644062500 
