16

 C -3.36815311875000 1.64161981875000 5.59676730625000 
 C -3.09703211875000 5.17804381875000 5.63474930625000 
 C -4.60507411875000 1.25043381875000 4.95696730625000 
 C -4.37880511875000 4.98897881875000 5.05946930625000 
 N -2.36764111875000 1.75067481875000 4.72472330625000 
 N -2.05498311875000 5.16492881875000 4.81959530625000 
 N -4.54307611875000 1.14054081875000 3.63111030625000 
 N -4.31736111875000 4.83114981875000 3.72921630625000 
 N -5.26612711875000 1.45709781875000 7.32754130625000 
 N -4.64920411875000 5.25750381875000 7.67758930625000 
 S -5.95363411875000 0.958438818749999 5.93429030625000 
 S -5.55130911875000 4.95341581875000 6.36085530625000 
 S -3.00111911875000 1.51704881875000 3.15932730625000 
 S -2.72306811875000 4.98214681875000 3.29768830625000 
 S -3.62575111875000 1.77521481875000 7.34809430625000 
 S -2.99399111875000 5.26552081875000 7.32094630625000 
