16

 C -3.03331454375000 1.43053490937500 5.51464317187500 
 C -3.02960354375000 4.93501690937500 5.28346617187500 
 C -4.21477454375000 0.946204909374999 4.87952017187500 
 C -4.28935154375000 4.74982090937500 4.64959217187500 
 N -1.99468654375000 1.51214290937500 4.71359417187500 
 N -1.98905954375000 4.69330690937500 4.47082917187500 
 N -4.09961254375000 0.719987909374999 3.53974517187500 
 N -4.29003654375000 4.58848590937500 3.29876617187500 
 N -4.81558654375000 1.31558590937500 7.36315717187500 
 N -4.68933554375000 5.25892490937500 7.18924917187500 
 S -5.61740954375000 0.923661909374999 5.96830217187500 
 S -5.58356554375000 4.87482490937500 5.78926817187500 
 S -2.43644354375000 1.05214090937500 3.23663617187500 
 S -2.63416254375000 4.57828190937500 2.95090217187500 
 S -3.27896754375000 1.84117790937500 7.17989517187500 
 S -3.00553554375000 5.32163090937500 6.94369617187500 
