16

 C -3.11749842812500 1.48633887187500 5.29902907500000 
 C -3.18797942812500 5.44194087187500 5.87211307500000 
 C -4.24266842812500 0.887566871875003 4.67784607500000 
 C -4.37096642812500 4.93189587187500 5.21127407500000 
 N -2.05766642812500 1.68107587187500 4.51682907500000 
 N -2.14936542812500 5.58899587187500 4.99418407500000 
 N -4.01201142812500 0.625298871875003 3.39595707500000 
 N -4.17470842812500 4.60026587187500 3.93093107500000 
 N -4.83564942812500 1.44024887187500 7.20913707500000 
 N -5.12177242812500 5.14939387187500 7.56012707500000 
 S -5.60441542812500 0.762988871875003 5.86167607500000 
 S -5.76616742812500 4.63448887187500 6.13535107500000 
 S -2.44039042812500 0.987262871875003 3.07719907500000 
 S -2.63952142812500 5.00936387187500 3.47918607500000 
 S -3.24265642812500 1.88248087187500 6.96833107500000 
 S -3.50123542812500 5.49780587187500 7.60729107500000 
