16

 C -3.15750844687500 1.25872587187500 5.21372406562500 
 C -3.32407944687500 5.00885087187500 5.43209306562500 
 C -4.45599744687500 0.911373871874996 4.68604706562500 
 C -4.57679844687500 4.64037487187500 4.88066506562500 
 N -2.18840544687500 1.16757687187500 4.26357306562500 
 N -2.26684844687500 5.21409387187500 4.62485106562500 
 N -4.49956344687500 0.620720871874997 3.37970706562500 
 N -4.51290644687500 4.50780087187500 3.55980606562500 
 N -4.91524144687500 1.29115287187500 7.18113506562500 
 N -4.81680544687500 4.88445587187500 7.47548606562500 
 S -5.79050544687500 0.803658871874997 5.78478406562500 
 S -5.76919044687500 4.50604487187500 6.19601506562500 
 S -2.99571844687500 0.785534871874996 2.82165606562500 
 S -2.95264144687500 4.88859687187500 3.14348306562500 
 S -3.26898744687500 1.57865487187500 6.93055106562500 
 S -3.24993444687500 5.24904787187500 7.10636706562500 
