16

 C -3.28789236562500 1.57224485937500 5.49630870000000 
 C -3.10918536562500 5.20433185937500 5.69277770000000 
 C -4.53811836562500 1.12900385937500 4.91236370000000 
 C -4.30748436562500 4.65433085937500 5.09676570000000 
 N -2.37208336562500 1.80034685937500 4.56226970000000 
 N -2.05251436562500 5.32973385937500 4.84872770000000 
 N -4.57614136562500 1.10802485937500 3.60652070000000 
 N -4.23281736562500 4.71618685937500 3.76448370000000 
 N -4.82884236562500 1.10822485937500 7.49618070000000 
 N -4.92569136562500 5.09245985937500 7.54443270000000 
 S -5.75174836562500 0.995227859374999 6.18929870000000 
 S -5.59271136562500 4.37957385937500 6.15898570000000 
 S -3.05591636562500 1.39182385937500 3.05154970000000 
 S -2.70138436562500 5.05094585937500 3.35540370000000 
 S -3.24908536562500 1.69391985937500 7.29117070000000 
 S -3.26776236562500 5.43980085937500 7.40455070000000 
