16

 C -2.89962263437500 1.85184156250000 5.61979363125000 
 C -3.20431063437500 5.24047156250000 5.66190363125000 
 C -4.18325863437500 1.65666756250000 5.02939463125000 
 C -4.46271163437500 4.93098256250000 5.06184663125000 
 N -1.90325163437500 1.89086056250000 4.73724163125000 
 N -2.15412563437500 5.34536856250000 4.82687063125000 
 N -4.14590163437500 1.39810756250000 3.72221963125000 
 N -4.33517563437500 4.59453856250000 3.78046263125000 
 N -4.44349563437500 1.43928456250000 7.48034963125000 
 N -4.84369063437500 5.16470656250000 7.60789763125000 
 S -5.41854963437500 1.50612956250000 6.16535963125000 
 S -5.69687363437500 4.69843556250000 6.29122163125000 
 S -2.53946263437500 1.58444956250000 3.27283763125000 
 S -2.76290963437500 4.92113056250000 3.36211163125000 
 S -2.85437363437500 1.95037356250000 7.33411963125000 
 S -3.26570763437500 5.44747156250000 7.37879163125000 
