16

 C -3.66003940625000 1.08131627500000 5.63529173750000 
 C -3.01479740625000 5.01118527500000 5.35613973750000 
 C -4.78949340625000 0.564813274999996 4.92528473750000 
 C -4.23580840625000 4.44394227500000 4.84245273750000 
 N -2.72735440625000 1.57570827500000 4.83155973750000 
 N -2.04778040625000 5.12998327500000 4.43587673750000 
 N -4.66634240625000 0.504028274999996 3.60219773750000 
 N -4.17441040625000 4.19792627500000 3.52863273750000 
 N -5.57506740625000 0.640411274999996 7.42281573750000 
 N -4.72673340625000 4.98093427500000 7.29035073750000 
 S -6.20081640625000 0.156966274999996 5.98743873750000 
 S -5.55291540625000 4.25964927500000 6.03839773750000 
 S -3.16423440625000 1.07478927500000 3.27897973750000 
 S -2.67889140625000 4.49597327500000 2.99332373750000 
 S -4.02059640625000 1.17572227500000 7.41313873750000 
 S -3.17738340625000 5.44498827500000 7.03709373750000 
