16

 C -3.03567174062500 1.60586679687500 5.43551554687500 
 C -3.19268474062500 5.11999979687500 5.60454554687500 
 C -4.27098174062500 1.21239379687500 4.85863254687500 
 C -4.47997874062500 4.86575179687500 4.94278154687500 
 N -2.03677874062500 1.61060379687500 4.55567054687500 
 N -2.15726374062500 5.33629579687500 4.79600754687500 
 N -4.22528974062500 0.809874796875003 3.60117254687500 
 N -4.33277874062500 4.71066579687500 3.65619654687500 
 N -4.59661674062500 1.27860879687500 7.33145554687500 
 N -4.96579974062500 4.74206179687500 7.38505254687500 
 S -5.58737674062500 1.06457979687500 6.01244154687500 
 S -5.77994074062500 4.33028079687500 6.01865754687500 
 S -2.68277874062500 1.17764079687500 3.08445254687500 
 S -2.76819874062500 5.01231779687500 3.21015354687500 
 S -3.03979974062500 1.85867479687500 7.11471754687500 
 S -3.39029474062500 5.09102879687500 7.30290154687500 
