16

 C -3.06111573750000 1.36833378437500 5.49851572500000 
 C -3.34685173750000 5.29774478437500 5.16914272500000 
 C -4.29796373750000 0.821670784374999 4.84626272500000 
 C -4.36808973750000 4.42056178437500 4.62154572500000 
 N -2.04273073750000 1.64106978437500 4.66626372500000 
 N -2.33638773750000 5.49412178437500 4.34301372500000 
 N -4.13905673750000 0.557667784374999 3.51986972500000 
 N -4.10444573750000 3.90261578437500 3.42797172500000 
 N -4.78867573750000 1.19576878437500 7.37477972500000 
 N -5.17046673750000 4.94700478437500 6.97609172500000 
 S -5.60159873750000 0.659436784374999 5.97560672500000 
 S -5.76034073750000 4.10055678437500 5.67025672500000 
 S -2.59063173750000 1.12268178437500 3.20525972500000 
 S -2.63010173750000 4.65663078437500 2.90523972500000 
 S -3.21708773750000 1.75330278437500 7.13835372500000 
 S -3.75476773750000 5.75160378437500 6.82253772500000 
