16

 C -3.16126623437500 0.931246809375001 5.59381937500000 
 C -2.95144323437500 5.08346980937500 5.59525337500000 
 C -4.33344423437500 0.537573809375001 4.85592337500000 
 C -4.12092423437500 4.54855780937500 4.94787137500000 
 N -2.07589523437500 1.22118280937500 4.83479837500000 
 N -1.91545823437500 5.26300280937500 4.79512337500000 
 N -4.12363923437500 0.494611809375001 3.51650837500000 
 N -4.01957223437500 4.46727980937500 3.62050137500000 
 N -5.12155823437500 1.05461780937500 7.35696937500000 
 N -4.71357923437500 4.77573880937500 7.45548137500000 
 S -5.82680823437500 0.405339809375001 6.01730137500000 
 S -5.47144223437500 4.27682980937500 6.08088837500000 
 S -2.52120423437500 0.824736809375001 3.26133637500000 
 S -2.39071523437500 4.85408080937500 3.26217337500000 
 S -3.49802723437500 1.27393380937500 7.31054937500000 
 S -3.16063223437500 5.34764280937500 7.27961737500000 
