16

 C -3.18893433437500 1.36289616250000 5.63189863437500 
 C -3.00103933437500 5.13500516250000 5.47481663437500 
 C -4.37665433437500 1.12572916250000 4.90396263437500 
 C -4.25721833437500 4.78279916250000 4.87434863437500 
 N -2.14786933437500 1.60495116250000 4.84751263437500 
 N -1.93983933437500 5.33854416250000 4.66024663437500 
 N -4.29074733437500 1.27568216250000 3.56649963437500 
 N -4.16216533437500 4.71177116250000 3.55325563437500 
 N -5.08005733437500 1.06626216250000 7.43670563437500 
 N -4.87965533437500 5.19841016250000 7.31499563437500 
 S -5.81062133437500 0.918649162500000 5.90913663437500 
 S -5.63654433437500 4.63072416250000 5.97119763437500 
 S -2.70438833437500 1.74351516250000 3.33473863437500 
 S -2.62522333437500 5.14114816250000 3.13441463437500 
 S -3.38786233437500 1.20507316250000 7.36753363437500 
 S -3.26957133437500 5.49132916250000 7.12867463437500 
