16

 C -3.20537473750000 1.32312703125000 5.26239726250000 
 C -2.92962273750000 5.28378903125000 5.36601126250000 
 C -4.48783873750000 0.911215031249998 4.69510926250000 
 C -4.11217073750000 4.85669203125000 4.66082026250000 
 N -2.14025573750000 1.22160703125000 4.47152526250000 
 N -1.86355173750000 5.40385003125000 4.58825926250000 
 N -4.39344773750000 0.582687031249999 3.41006626250000 
 N -3.93778573750000 4.56077803125000 3.35610926250000 
 N -4.93751873750000 1.38843303125000 7.25998026250000 
 N -4.69762273750000 4.88215903125000 7.24702826250000 
 S -5.79818973750000 0.915229031249998 5.94028926250000 
 S -5.43614173750000 4.42900703125000 5.80909626250000 
 S -2.77230773750000 0.640781031249998 3.03243126250000 
 S -2.30197573750000 4.91683203125000 3.05507926250000 
 S -3.29032673750000 1.55761203125000 6.98959626250000 
 S -3.10718973750000 5.49782603125000 7.11471826250000 
