16

 C -2.91920324687500 1.49390839375000 5.32078366250000 
 C -3.31648924687500 5.22492539375000 5.46610866250000 
 C -4.24973624687500 1.05224839375000 4.78462766250000 
 C -4.40141924687500 4.66455339375000 4.72545266250000 
 N -2.00236724687500 1.58892439375000 4.36769666250000 
 N -2.26226724687500 5.51561239375000 4.71757266250000 
 N -4.22076324687500 0.885255393749998 3.44494766250000 
 N -4.19265224687500 4.63100639375000 3.40188466250000 
 N -4.57483124687500 1.14999139375000 7.38647466250000 
 N -5.06781124687500 4.71098139375000 7.21991166250000 
 S -5.45225224687500 0.783999393749998 6.03909366250000 
 S -5.76072224687500 4.33125339375000 5.79191466250000 
 S -2.72626224687500 1.27357739375000 2.89200066250000 
 S -2.62414824687500 5.15460139375000 3.16948066250000 
 S -2.98974424687500 1.59329839375000 7.10882566250000 
 S -3.49476824687500 5.21557739375000 7.19786366250000 
