16

 C -3.00567229687500 1.74278094687500 5.59179614687500 
 C -3.09666629687500 5.39230694687500 5.56413914687500 
 C -4.13152229687500 1.03060394687500 4.99140014687500 
 C -4.30697929687500 4.85634194687500 4.99366114687500 
 N -1.95766529687500 1.80394094687500 4.78431214687500 
 N -2.04202129687500 5.45129094687500 4.73560314687500 
 N -3.90628929687500 0.665431946875000 3.70197114687500 
 N -4.14392529687500 4.53608094687500 3.70654214687500 
 N -4.73782329687500 1.45941494687500 7.49879214687500 
 N -4.86316429687500 5.34535894687500 7.47278714687500 
 S -5.44726929687500 0.774509946875000 6.17224014687500 
 S -5.68021229687500 4.93719594687500 6.04971814687500 
 S -2.34619929687500 1.24709094687500 3.31893014687500 
 S -2.62168329687500 5.00569794687500 3.27194214687500 
 S -3.23669629687500 2.12252794687500 7.28697614687500 
 S -3.22619229687500 5.72311494687500 7.25431014687500 
