16

 C -3.17125244062500 1.64612745312500 5.38985409687500 
 C -3.02490944062500 4.95976045312500 5.46893409687500 
 C -4.33593844062500 1.17019245312500 4.67309609687500 
 C -4.30649944062500 4.68051645312500 4.79901109687500 
 N -2.14443844062500 1.94279245312500 4.56962609687500 
 N -1.97775544062500 5.10653745312500 4.69138309687500 
 N -4.22478944062500 1.21371845312500 3.34858909687500 
 N -4.14713644062500 4.68630945312500 3.49416809687500 
 N -5.01054144062500 1.05999645312500 7.22058809687500 
 N -4.85655144062500 4.96936845312500 7.35313109687500 
 S -5.71909544062500 0.919718453125002 5.76502609687500 
 S -5.72067744062500 4.66806945312500 5.89751109687500 
 S -2.64416544062500 1.60652345312500 3.04806309687500 
 S -2.57033544062500 4.98236645312500 3.13537009687500 
 S -3.42597544062500 1.64516245312500 7.08077209687500 
 S -3.17510644062500 4.97345145312500 7.19426809687500 
