16

 C -3.04531104687500 1.15239888125000 5.83439472812500 
 C -3.23579804687500 5.07121688125000 5.50934372812500 
 C -4.22982204687500 0.616415881250000 5.14331072812500 
 C -4.35156604687500 4.39271488125000 4.89503872812500 
 N -1.99957904687500 1.30309988125000 5.04451872812500 
 N -2.19326904687500 5.25687788125000 4.70447272812500 
 N -4.06600104687500 0.408669881250000 3.82283972812500 
 N -4.26468304687500 4.28831288125000 3.54952472812500 
 N -4.77145804687500 0.888320881250000 7.66919072812500 
 N -4.84594304687500 4.48878388125000 7.41352772812500 
 S -5.56235604687500 0.459193881250000 6.23147072812500 
 S -5.72950204687500 4.12815788125000 5.98025772812500 
 S -2.48324704687500 0.805794881250000 3.53105272812500 
 S -2.75997404687500 4.91821988125000 3.18081672812500 
 S -3.14881104687500 1.39625988125000 7.56701572812500 
 S -3.38508004687500 5.32968688125000 7.21132772812500 
