16

 C -3.06895074062500 1.38659382187500 5.48406855312500 
 C -3.39334074062500 5.22925482187500 5.13596655312500 
 C -4.24129274062500 0.867468821875001 4.79635355312500 
 C -4.42136874062500 4.39677082187500 4.55312055312500 
 N -1.99686274062500 1.57548882187500 4.73859555312500 
 N -2.29461974062500 5.41437482187500 4.37862855312500 
 N -4.05436474062500 0.634919821875001 3.51087655312500 
 N -4.05080374062500 3.90162682187500 3.36354455312500 
 N -4.80891774062500 1.13443982187500 7.30434655312500 
 N -5.18831474062500 4.95245582187500 6.99475455312500 
 S -5.62471074062500 0.693620821875001 5.94209055312500 
 S -5.74666574062500 4.10910182187500 5.69751655312500 
 S -2.55050374062500 1.13954482187500 3.21132955312500 
 S -2.61061674062500 4.60851182187500 2.95586055312500 
 S -3.26035674062500 1.75606982187500 7.19487355312500 
 S -3.75542574062500 5.80170282187500 6.76822055312500 
