16

 C -2.87441047812500 1.71306867500000 5.76512355937500 
 C -3.32106947812500 5.37602667500000 5.42350355937500 
 C -4.13940747812500 1.45682167500000 5.15050055937500 
 C -4.56141547812500 4.91223567500000 4.83167955937500 
 N -1.88267547812500 1.82610667500000 4.87057855937500 
 N -2.33054647812500 5.54855467500000 4.55020755937500 
 N -4.11762147812500 1.48052867500000 3.83725255937500 
 N -4.49365247812500 4.86690367500000 3.48077855937500 
 N -4.67515847812500 1.63973967500000 7.64486655937500 
 N -4.97266747812500 5.10134667500000 7.35148455937500 
 S -5.47303447812500 1.43404967500000 6.23054855937500 
 S -5.77412847812500 4.48868767500000 6.02367755937500 
 S -2.50941947812500 1.69368767500000 3.33311155937500 
 S -3.00400247812500 5.34747367500000 3.01120255937500 
 S -3.01519147812500 1.68355567500000 7.50339655937500 
 S -3.45308247812500 5.72382567500000 7.09205055937500 
