16

 C -2.84670044375000 1.35823368437500 5.82385595000000 
 C -3.25198044375000 5.08793668437500 5.66164095000000 
 C -4.15752144375000 1.31244068437500 5.15757495000000 
 C -4.53356744375000 4.85886768437500 4.97462195000000 
 N -1.79467944375000 1.40850768437500 5.00023495000000 
 N -2.21869944375000 5.15743868437500 4.85599595000000 
 N -4.06604244375000 1.26614268437500 3.82057895000000 
 N -4.49014444375000 4.78131168437500 3.64620595000000 
 N -4.59110844375000 1.40376268437500 7.65665395000000 
 N -5.09304844375000 4.86386468437501 7.47647395000000 
 S -5.45033044375000 1.26441768437500 6.29389395000000 
 S -5.85307944375000 4.64592868437501 6.00579595000000 
 S -2.48455444375000 1.33012168437500 3.46176495000000 
 S -2.88680844375000 4.91626668437500 3.30628495000000 
 S -2.94699144375000 1.54797268437500 7.50645795000000 
 S -3.43493144375000 5.11998968437500 7.41847595000000 
