16

 C -2.92405568750000 1.66336422812500 5.40303070000000 
 C -3.19023068750000 5.02502622812500 5.62781570000000 
 C -4.20815368750000 1.37956422812500 4.89919670000000 
 C -4.47158968750000 4.74468522812500 4.96841770000000 
 N -1.95005568750000 1.68282322812501 4.51305370000000 
 N -2.16932068750000 5.26280422812501 4.82174070000000 
 N -4.15161968750000 1.08161422812501 3.62404770000000 
 N -4.30804468750000 4.63130022812501 3.67057970000000 
 N -4.56622768750000 1.82965722812501 7.35471670000000 
 N -4.92038468750000 4.72105022812500 7.44293170000000 
 S -5.45103968750000 1.20335122812500 6.07294670000000 
 S -5.82030468750000 4.46647522812501 6.10857870000000 
 S -2.63747768750000 1.40850722812501 3.04349770000000 
 S -2.75221168750000 5.00573022812500 3.26617470000000 
 S -2.94736068750000 1.99029422812500 7.07523270000000 
 S -3.35678168750000 5.23949522812500 7.32734770000000 
