16

 C -3.43680084687500 1.51642283750000 5.56307185000000 
 C -3.07664384687500 5.11986783750000 5.41655585000000 
 C -4.41092584687500 0.648379837500005 4.93966285000000 
 C -4.24126584687500 4.75986483750000 4.66207085000000 
 N -2.46601084687500 1.83126783750000 4.67979685000000 
 N -1.96603284687500 5.16572283750000 4.73289785000000 
 N -4.16946484687500 0.264604837500005 3.70268085000000 
 N -3.97068584687500 4.47521583750000 3.42219985000000 
 N -5.26308084687500 0.845590837500005 7.31380885000000 
 N -4.89570384687500 5.02887483750000 7.25051185000000 
 S -5.84219484687500 0.262748837500005 5.82816485000000 
 S -5.66156084687500 4.98043283750000 5.76387185000000 
 S -2.73332984687500 0.960277837500005 3.29018285000000 
 S -2.31662584687500 4.69765483750001 3.20677785000000 
 S -3.87724384687500 1.75387783750000 7.23200285000000 
 S -3.30023684687500 5.48559483750000 7.04552285000000 
