16

 C -3.20947211562500 1.32382759687500 5.68042630937500 
 C -3.12413911562500 5.31252959687500 5.50836130937500 
 C -4.49607911562500 1.16847059687500 4.97305130937500 
 C -4.32089211562500 4.80652459687500 4.80032030937500 
 N -2.17496411562500 1.38047159687500 4.82852930937500 
 N -2.08713211562500 5.50327259687500 4.70524130937500 
 N -4.39893511562500 1.28330259687500 3.64119230937500 
 N -4.17015511562500 4.74653659687500 3.49490030937500 
 N -5.03619611562500 0.932475596875001 7.53989030937500 
 N -4.86182411562500 4.91291359687500 7.27362430937500 
 S -5.78887111562500 1.03331259687500 6.05301930937500 
 S -5.68725711562500 4.59739959687500 5.86416930937500 
 S -2.76370111562500 1.41103359687500 3.32964130937500 
 S -2.58913111562500 5.12061159687500 3.15623930937500 
 S -3.40811911562500 1.37160859687500 7.41807330937500 
 S -3.33725511562500 5.57501859687500 7.30157530937500 
