16

 C -3.12967578125000 1.72683683437500 5.77962868125000 
 C -3.19876578125000 5.28173983437500 5.88663868125000 
 C -4.30742078125000 1.12462083437500 5.09459768125000 
 C -4.31786678125000 4.67834283437500 5.26530268125000 
 N -2.14386578125000 1.88911183437500 4.92991368125000 
 N -2.14448378125000 5.51189183437500 5.07236868125000 
 N -4.17622378125000 0.794676834374997 3.85447468125000 
 N -4.12339678125000 4.52200383437500 3.95140768125000 
 N -5.05428878125000 1.11752983437500 7.44873868125000 
 N -4.70090478125000 4.85032583437500 7.89385768125000 
 S -5.68466478125000 0.665173834374998 6.00748468125000 
 S -5.62523078125000 4.43549583437500 6.45216368125000 
 S -2.72303178125000 1.43386583437500 3.35510768125000 
 S -2.58661178125000 5.05528983437500 3.56743168125000 
 S -3.58485978125000 1.89223983437500 7.48733668125000 
 S -3.17055178125000 5.62800883437500 7.53488868125000 
