16

 C -3.24942888750000 1.10002455000000 5.50335049375001 
 C -2.83540588750000 5.12974055000000 5.45764049375001 
 C -4.53459188750000 0.755494549999999 5.01846649375001 
 C -4.06074188750000 4.94572455000000 4.74415149375000 
 N -2.32993488750000 1.29542955000000 4.55267849375001 
 N -1.72321188750000 5.28340155000000 4.73520549375000 
 N -4.56902888750000 0.500187549999999 3.70333449375001 
 N -3.83295088750000 4.85155755000000 3.46745549375001 
 N -4.80474488750000 1.34163455000000 7.45432449375001 
 N -4.79291788750000 5.05105855000000 7.10983049375000 
 S -5.73244188750000 0.619928549999999 6.24638549375001 
 S -5.46348088750000 4.62049255000000 5.67766749375001 
 S -3.04835288750000 0.885201549999999 3.13337849375001 
 S -2.26028388750000 5.13649655000000 3.14660149375001 
 S -3.13825388750000 1.26521855000000 7.21646449375000 
 S -3.09925388750000 5.08067355000000 7.18983649375001 
