16

 C -3.14248301250000 1.42669175937500 5.60599103437500 
 C -3.00010101250000 5.28604675937500 5.87163303437500 
 C -4.35565401250000 0.994907759374999 4.91544703437500 
 C -4.17593801250000 4.89570775937500 5.14576703437500 
 N -2.12164701250000 1.67715575937500 4.79197303437500 
 N -1.98576401250000 5.56292975937500 5.04931603437500 
 N -4.17228801250000 0.977928759374999 3.61156303437500 
 N -4.00091401250000 4.69766275937500 3.83006203437500 
 N -4.93983101250000 1.09455975937500 7.49573603437500 
 N -4.83533901250000 4.93408575937500 7.60992103437500 
 S -5.65208301250000 0.711016759374998 6.05932403437500 
 S -5.56089901250000 4.79238475937500 6.15380803437500 
 S -2.55515101250000 1.30920075937500 3.26416803437500 
 S -2.42259401250000 5.08070575937500 3.54771303437500 
 S -3.33750101250000 1.57206875937500 7.32436603437500 
 S -3.21481301250000 5.29061475937500 7.66850903437500 
