16

 C -3.35911339687500 1.56615374062501 5.44480495000000 
 C -3.12811039687500 5.48243674062501 5.64371395000000 
 C -4.45165439687500 0.944907740625006 4.76024995000000 
 C -4.26066739687500 4.86599074062501 4.99870895000000 
 N -2.30846139687500 1.69178874062501 4.70645495000000 
 N -2.14251039687500 5.74395374062501 4.77378795000000 
 N -4.29153339687500 0.724033740625006 3.45697495000000 
 N -4.29260539687500 4.89587674062501 3.65534195000000 
 N -5.27901139687500 1.31211674062501 7.21317095000000 
 N -4.74551939687500 5.11474574062501 7.49840095000000 
 S -5.88284639687500 0.730733740625007 5.77029295000000 
 S -5.54253739687500 4.63393274062501 6.12413095000000 
 S -2.71023439687500 1.21065274062501 3.17256395000000 
 S -2.71590439687500 5.44020374062501 3.25388495000000 
 S -3.72809639687500 1.94278074062501 7.16756595000000 
 S -3.21280839687500 5.58793074062501 7.38467495000000 
