16

 C -3.07967485312500 1.44812556875000 5.44843829687500 
 C -3.34889485312500 5.33905356875000 5.46438029687500 
 C -4.26386485312500 0.925548568750000 4.90905329687500 
 C -4.49826285312500 4.81400556875000 4.75272829687500 
 N -2.07340585312500 1.63404956875000 4.62337729687500 
 N -2.30253785312500 5.49141156875000 4.63896629687500 
 N -4.20173085312500 0.758990568750000 3.58538129687500 
 N -4.33951385312500 4.67196556875000 3.43344529687500 
 N -4.78626985312500 1.23401656875000 7.40846929687500 
 N -5.10806285312500 4.70858956875000 7.20349829687500 
 S -5.58517985312500 0.662632568750000 6.05850529687500 
 S -5.85272685312500 4.44797956875000 5.73957129687500 
 S -2.67816485312500 1.26530956875000 3.13612829687500 
 S -2.79636185312500 5.19739656875000 3.09882329687500 
 S -3.20070685312500 1.61154856875000 7.20026629687500 
 S -3.52796485312500 5.24407856875000 7.23153329687500 
