16

 C -3.15947452500000 1.40863104062500 5.50707760625000 
 C -3.23318552500000 5.24975704062500 5.50362360625000 
 C -4.33171952500000 0.869522040625001 4.82873160625000 
 C -4.33756852500000 4.63747304062500 4.75626760625000 
 N -2.14835352500000 1.65736304062500 4.69359460625000 
 N -2.13064352500000 5.46649204062500 4.76853160625000 
 N -4.11271152500000 0.625478040625000 3.56294560625000 
 N -3.99140452500000 4.46623604062500 3.51082860625000 
 N -5.00795952500000 0.855263040625000 7.27907160625000 
 N -5.12439352500000 5.10089704062500 7.16546260625000 
 S -5.64912152500000 0.398865040625000 5.78189060625000 
 S -5.66264952500000 4.19212904062500 5.85121260625000 
 S -2.72393352500000 1.24119904062500 3.18786660625000 
 S -2.45356352500000 4.92218304062500 3.25033460625000 
 S -3.46089352500000 1.47031304062500 7.28537260625000 
 S -3.61205252500000 5.58065504062500 7.12878260625000 
