16

 C -3.41399658125000 1.24074294062500 5.30206516250000 
 C -3.16056458125000 5.12286394062500 5.35209116250000 
 C -4.60368458125000 0.711451940625004 4.65081816250000 
 C -4.39296158125000 4.71072294062500 4.82352516250000 
 N -2.40069958125000 1.44340294062500 4.50305816250000 
 N -2.19099258125000 5.13276094062500 4.41476116250000 
 N -4.40013358125000 0.402012940625004 3.36908016250000 
 N -4.39928658125000 4.35378794062500 3.54010016250000 
 N -5.05440358125000 0.891396940625004 7.22863016250000 
 N -4.86983658125000 4.77776694062500 7.22275516250000 
 S -5.97956358125000 0.725123940625004 5.79073516250000 
 S -5.71414058125000 4.71342994062500 5.86024716250000 
 S -2.76133458125000 0.801064940625004 3.02559316250000 
 S -2.88774858125000 4.57911994062500 2.95007516250000 
 S -3.42872258125000 1.44808194062500 6.94265316250000 
 S -3.32391458125000 5.43275994062500 7.11105516250000 
