16

 C -3.42705714687500 1.23036270625000 5.29694047812500 
 C -3.10653814687500 5.11628470625000 5.33842147812500 
 C -4.59873114687500 0.725961706250000 4.65548847812500 
 C -4.37976914687500 4.67481170625000 4.79107447812500 
 N -2.37348514687500 1.40172770625000 4.53109347812500 
 N -2.17507014687500 5.08692070625000 4.42395447812500 
 N -4.37297114687500 0.361192706250001 3.39027347812500 
 N -4.37748314687500 4.33030870625000 3.52712347812500 
 N -5.12114314687500 0.925842706250001 7.21575747812500 
 N -4.82426114687500 4.82152870625000 7.21037247812500 
 S -5.98511014687500 0.667345706250001 5.79766947812500 
 S -5.71803914687500 4.75507670625000 5.81732447812500 
 S -2.76359514687500 0.847973706249999 3.06959747812500 
 S -2.84175714687500 4.57836870625000 2.99536647812500 
 S -3.49118614687500 1.44949770625000 6.97006847812500 
 S -3.37784714687500 5.45014770625000 7.04579147812500 
