16

 C -3.23492598437500 1.32895336875000 5.43135750625000 
 C -3.17906898437500 5.40332836875000 5.77995750625000 
 C -4.40816198437500 0.787581368749996 4.76151650625000 
 C -4.33594198437500 5.07681936875000 4.97090950625000 
 N -2.25341998437500 1.68378536875000 4.59922150625000 
 N -2.09748098437500 5.54297236875000 5.03542050625000 
 N -4.27665898437500 0.666724368749996 3.44074150625000 
 N -4.15125998437500 5.04050436875000 3.66651450625000 
 N -5.15863598437500 1.18926536875000 7.16143550625000 
 N -5.07148598437500 5.24014036875000 7.40499350625000 
 S -5.77716598437500 0.366385368749996 5.83794550625000 
 S -5.72451998437500 5.07582436875000 5.92577150625000 
 S -2.75739198437500 1.20167836875000 3.06330550625000 
 S -2.55491798437500 5.31688436875000 3.43660950625000 
 S -3.54156998437500 1.47250736875000 7.18733050625000 
 S -3.46718398437500 5.53183036875000 7.53219950625000 
