16

 C -3.20956716875000 1.32440376562500 5.39005353750000 
 C -2.87751216875000 5.30444076562500 5.65874153750000 
 C -4.37555316875000 0.832153765625002 4.68065153750000 
 C -4.19915516875000 5.06089376562500 5.15443953750000 
 N -2.13061316875000 1.63221776562500 4.61811753750000 
 N -1.96876416875000 5.30882176562500 4.67209953750000 
 N -4.19252016875000 0.731625765625004 3.34862053750000 
 N -4.29794616875000 4.92898476562500 3.88340053750000 
 N -4.85343316875000 0.793121765625004 7.23211153750000 
 N -4.57903316875000 4.88900476562500 7.60063253750000 
 S -5.64288616875000 0.243762765625003 5.82002453750000 
 S -5.53120016875000 4.86643576562500 6.19837453750000 
 S -2.61503216875000 1.45797976562500 3.05707953750000 
 S -2.79864216875000 5.06682276562500 3.21344953750000 
 S -3.38446116875000 1.56676976562500 6.99821853750000 
 S -2.97464416875000 5.46636176562500 7.45407653750000 
