16

 C -3.28148587812500 1.10326360625000 5.64640516250000 
 C -3.10306687812500 5.22492560625000 5.51177116250000 
 C -4.47575487812500 0.637726606249999 4.96287916250000 
 C -4.27064487812500 4.66930660625000 4.88562216250000 
 N -2.26788987812500 1.29841360625000 4.81037416250000 
 N -2.01340687812500 5.29715160625000 4.75948716250000 
 N -4.29467887812500 0.651960606249999 3.63915316250000 
 N -4.15462487812500 4.61052860625000 3.56418216250000 
 N -5.06876587812500 0.962076606249999 7.53089616250000 
 N -4.70727387812500 4.62578860625000 7.53905416250000 
 S -5.75576487812500 0.369567606250000 6.12251316250000 
 S -5.52280987812500 4.26890760625000 6.08749716250000 
 S -2.70773987812500 0.964038606249999 3.24476116250000 
 S -2.54142287812500 4.90209460625000 3.21024416250000 
 S -3.44571887812500 1.43243660625000 7.39184616250000 
 S -3.13034587812500 5.22007460625000 7.24349416250000 
