16

 C -3.43709214375000 1.51974162812500 5.55267374062500 
 C -3.06479414375000 5.12316262812500 5.41786274062500 
 C -4.41180714375000 0.663323628125003 4.94782574062500 
 C -4.24316614375000 4.75677362812500 4.67186874062500 
 N -2.45525714375000 1.83436462812500 4.67317774062500 
 N -1.95845514375000 5.16764962812500 4.72070474062500 
 N -4.15801514375000 0.252367628125002 3.70617074062500 
 N -3.97660114375000 4.47567862812500 3.42118674062500 
 N -5.25631814375000 0.849136628125002 7.33260874062500 
 N -4.88331014375000 5.01755062812500 7.24262274062500 
 S -5.83499314375000 0.266441628125002 5.82801274062500 
 S -5.65837514375000 4.98191462812500 5.77703074062500 
 S -2.74457414375000 0.960385628125003 3.29771574062500 
 S -2.31660114375000 4.71315262812500 3.21568974062500 
 S -3.87509714375000 1.75669962812500 7.23020374062500 
 S -3.29719214375000 5.48218962812500 7.04541474062500 
