16

 C -2.90634054687500 1.73324245625000 5.42658072187500 
 C -3.22051354687500 5.12030345625000 5.62830772187500 
 C -4.19441854687500 1.27150945625000 4.87643672187500 
 C -4.43427454687500 4.61500945625000 5.01367272187500 
 N -1.90090054687500 1.84359345625000 4.57760572187500 
 N -2.16775654687500 5.28307645625000 4.84312572187500 
 N -4.17754754687500 1.12207545625000 3.54268272187500 
 N -4.32430654687500 4.52504445625000 3.70078572187500 
 N -4.51309154687500 1.85965045625000 7.38753772187500 
 N -4.95161754687500 4.89487945625000 7.58271372187500 
 S -5.44130354687500 1.32931645625000 6.08230372187500 
 S -5.78075854687500 4.56135645625000 6.13329572187500 
 S -2.61485154687500 1.49940845625000 3.10032572187500 
 S -2.74780454687500 4.99999145625000 3.30381472187500 
 S -2.83199954687500 1.99889945625000 7.16483772187500 
 S -3.32786154687500 5.24065845625000 7.32941472187500 
