16

 C -3.22565221875000 1.49664096250000 5.41378465312500 
 C -3.09347321875000 5.04760796250000 5.61537565312500 
 C -4.47084421875000 1.21092296250000 4.77642765312500 
 C -4.34496821875000 4.61942196250000 4.99300465312500 
 N -2.19297721875000 1.76261196250000 4.63585165312500 
 N -2.08995121875000 5.22414096250000 4.80261265312500 
 N -4.37681621875000 1.14560496250000 3.44076165312500 
 N -4.13018421875000 4.27971096250000 3.73278665312500 
 N -4.96448721875000 1.34330496250000 7.32803465312500 
 N -4.85621721875000 4.68320196250000 7.49365665312500 
 S -5.71797321875000 0.942409962500002 5.96301565312500 
 S -5.70621721875000 4.29820296250000 6.09313365312500 
 S -2.81529621875000 1.46823496250000 3.05279565312500 
 S -2.60342421875000 4.70073096250000 3.29604765312500 
 S -3.34467721875000 1.71193796250000 7.18473565312500 
 S -3.34263821875000 5.36042696250000 7.30133065312500 
