16

 C -3.60066029687500 1.39313574687500 5.82835160625000 
 C -3.28433329687500 5.17243874687500 5.32644460625000 
 C -4.69554229687500 0.872307746875001 4.95893360625000 
 C -4.46444129687500 4.54921674687500 4.79004860625000 
 N -2.46955429687500 1.52667274687500 5.16775060625000 
 N -2.27447629687500 5.28571874687500 4.47750260625000 
 N -4.33000029687500 0.636143746875001 3.72310560625000 
 N -4.40516229687500 4.23772174687500 3.48107660625000 
 N -5.58193929687500 0.810265746875000 7.30510960625000 
 N -4.81426129687500 4.84239274687500 7.32388060625000 
 S -6.15025029687500 0.500627746875001 5.78707660625000 
 S -5.68806429687500 4.44443774687500 5.98012460625000 
 S -2.73428629687500 1.17188274687500 3.55547360625000 
 S -2.84885829687500 4.76637574687500 3.00766260625000 
 S -4.04051929687500 1.39172474687500 7.49132960625000 
 S -3.26277229687500 5.39953274687500 7.06354060625000 
