16

 C -3.27907200937500 1.30700266562500 5.54665593750000 
 C -3.36446600937500 5.01086966562500 5.26555093750000 
 C -4.50578800937500 0.748021665624998 4.89985193750000 
 C -4.55249100937500 4.48160966562500 4.59847693750000 
 N -2.33766100937500 1.59279666562500 4.64385593750000 
 N -2.36553200937500 5.21124566562500 4.39353393750000 
 N -4.37280500937500 0.593765665624998 3.58595393750000 
 N -4.51313500937500 4.41846966562500 3.26832293750000 
 N -5.02370300937500 0.902154665624998 7.45569793750000 
 N -5.17610400937500 4.55967866562500 7.12177393750000 
 S -5.80351700937500 0.471133665624998 6.05777493750000 
 S -5.96869500937500 4.33072266562500 5.67574793750000 
 S -2.85721500937500 1.08563366562500 3.14448493750000 
 S -2.96500800937500 4.92258966562500 2.88172293750000 
 S -3.52086100937500 1.57931266562500 7.32984593750000 
 S -3.54747700937500 5.06182666562500 6.96474093750000 
