16

 C -3.00477131875000 1.22106241562500 5.54509294687500 
 C -3.13946331875000 5.32726841562500 5.28664094687500 
 C -4.21509831875000 0.863668415625003 4.80210294687500 
 C -4.33921431875000 4.82482941562500 4.63621494687500 
 N -1.93539431875000 1.37204341562500 4.76109394687500 
 N -2.18157931875000 5.55747641562500 4.41048394687500 
 N -4.07331731875000 0.724800415625003 3.48023194687500 
 N -4.28143331875000 4.63122641562500 3.27977994687500 
 N -4.90803631875000 1.10152041562500 7.32567294687500 
 N -4.78424931875000 4.93498841562500 7.20293394687500 
 S -5.58893731875000 0.884036415625003 5.84895794687500 
 S -5.62006931875000 4.62880641562500 5.80065994687500 
 S -2.40883231875000 0.950564415625003 3.22289294687500 
 S -2.67741731875000 5.16444641562500 2.87583594687500 
 S -3.28359231875000 1.55898441562500 7.25460494687500 
 S -3.25761431875000 5.44756741562500 7.06022194687500 
