16

 C -3.15317249687499 1.22357575312500 5.21931683125000 
 C -3.26984049687499 4.99952875312500 5.44333083125000 
 C -4.45389249687499 0.877003753125001 4.67395683125000 
 C -4.56302949687499 4.63114675312500 4.89085683125000 
 N -2.20252749687499 1.14988475312500 4.25975983125000 
 N -2.27686249687499 5.21156375312500 4.61845283125000 
 N -4.50834649687499 0.664188753125002 3.33935583125000 
 N -4.52597849687499 4.51767475312500 3.55593483125000 
 N -4.89036749687499 1.34086075312500 7.13058583125000 
 N -4.81912549687499 4.90454475312500 7.53757683125000 
 S -5.79666549687499 0.811635753125001 5.82505783125000 
 S -5.78299149687499 4.48051075312500 6.17926683125000 
 S -2.98169149687499 0.796980753125002 2.83633583125000 
 S -2.97088349687499 4.91505575312500 3.15490283125000 
 S -3.24193049687499 1.60969075312500 6.91776283125000 
 S -3.24295449687499 5.25030175312500 7.16579983125000 
