16

 C -3.09454673125000 1.14596170625000 5.49444115937500 
 C -3.14628773125000 5.53988170625000 5.49155015937500 
 C -4.38004173125000 0.887952706250002 4.83630115937500 
 C -4.20699773125000 4.77164270625000 4.87927115937500 
 N -2.03931573125000 1.24713770625000 4.63291215937500 
 N -2.08883273125000 5.76572470625000 4.70032315937500 
 N -4.28772073125000 0.917860706250002 3.50565215937500 
 N -4.00079473125000 4.44722570625000 3.61344615937500 
 N -4.79047773125000 1.00606670625000 7.40356915937500 
 N -5.05880573125000 5.32136870625000 7.19989515937500 
 S -5.67208473125000 0.799787706250002 6.02883315937500 
 S -5.60971273125000 4.40293570625000 5.89123215937500 
 S -2.67292173125000 0.951948706250002 3.08671615937500 
 S -2.50066173125000 5.06415370625000 3.20047615937500 
 S -3.17574373125000 1.36044670625000 7.18001515937500 
 S -3.53015673125000 5.95289570625000 7.11573415937500 
