16

 C -3.14422399375000 1.52822460937500 5.51886536875000 
 C -3.51022999375000 5.10309460937500 5.56031336875000 
 C -4.22911499375000 0.907615609375002 4.78929936875000 
 C -4.64071099375000 4.44690260937500 4.95545536875000 
 N -2.09415399375000 1.84561360937500 4.73742336875000 
 N -2.60992099375000 5.45878360937500 4.66270436875000 
 N -4.01309799375000 0.881868609375002 3.44976236875000 
 N -4.58783799375000 4.26689260937500 3.63618636875000 
 N -4.85106199375000 0.913442609375002 7.30147636875000 
 N -5.18504499375000 4.64452560937500 7.47671236875000 
 S -5.62308199375000 0.703523609375002 5.86441236875000 
 S -5.92222999375000 4.14287160937500 6.07957736875000 
 S -2.50405199375000 1.55458460937500 3.15620036875000 
 S -3.13055599375000 4.87594460937500 3.18001936875000 
 S -3.41817499375000 1.81088860937500 7.21263236875000 
 S -3.75651799375000 5.48267260937500 7.21608236875000 
