16

 C -3.10726109375000 0.927250231249999 5.59779719375000 
 C -3.27896309375000 4.83588223125000 5.26282619375000 
 C -4.33186609375000 0.753719231249999 4.96111919375000 
 C -4.48300709375000 4.31351723125000 4.62397819375000 
 N -2.08311509375000 1.19828323125000 4.74298319375000 
 N -2.31552609375000 5.16509423125000 4.37940519375000 
 N -4.29769109375000 0.688378231249999 3.62548619375000 
 N -4.34054809375000 4.04824023125000 3.31807019375000 
 N -4.93314209375000 0.758870231249999 7.49109419375000 
 N -5.11436409375000 4.72561623125000 7.10088019375000 
 S -5.67606409375000 0.519840231249998 6.03801919375000 
 S -5.85646509375000 4.03986423125000 5.72553619375000 
 S -2.73646509375000 1.02496823125000 3.22870419375000 
 S -2.83930309375000 4.64383323125000 2.89969319375000 
 S -3.27691009375000 0.876268231249998 7.32789019375000 
 S -3.57796509375000 5.30123323125000 6.89384619375000 
