16

 C -2.90877361250000 1.51938372812501 5.62412724687500 
 C -3.02881161250000 5.26006972812501 5.55767724687500 
 C -4.11512161250000 0.990238728125004 4.96976924687500 
 C -4.28109161250000 4.92320272812501 4.92844924687500 
 N -1.91677961250000 1.84600672812500 4.79652124687500 
 N -1.99185061250000 5.36484872812500 4.69785024687500 
 N -4.00336861250000 0.833067728125005 3.64558324687500 
 N -4.19416661250000 4.73986772812500 3.60127424687500 
 N -4.78039461250000 1.47727272812500 7.39168724687500 
 N -4.86192961250000 5.36696072812500 7.39014024687500 
 S -5.45124461250000 0.794493728125005 6.04571124687500 
 S -5.59360561250000 4.84287472812500 6.00411724687500 
 S -2.50627261250000 1.29627872812500 3.32290524687500 
 S -2.62716261250000 4.98581472812501 3.18946024687500 
 S -3.17916861250000 2.07239572812500 7.23382424687500 
 S -3.27382361250000 5.72794272812500 7.28397524687500 
