16

 C -3.33058781562500 1.30673422500000 5.55311971250000 
 C -3.36507281562500 4.88075922500000 5.24392871250000 
 C -4.45304581562500 0.700827225000002 4.92758271250000 
 C -4.58986281562500 4.42053422500000 4.63312771250000 
 N -2.33194981562500 1.55737122500000 4.71133971250000 
 N -2.34564781562500 5.16364722500000 4.44316671250000 
 N -4.36534181562500 0.605742225000002 3.59253471250000 
 N -4.52436981562500 4.46288622500000 3.31043671250000 
 N -5.02959781562500 0.933037225000002 7.37466371250000 
 N -5.14297381562500 4.58282522500000 7.11579771250000 
 S -5.79087781562500 0.359808225000002 6.03325371250000 
 S -6.00031881562500 4.40592222500000 5.70304871250000 
 S -2.80397881562500 1.12165322500000 3.17995871250000 
 S -2.98750481562500 4.95791222500000 2.90749671250000 
 S -3.48470481562500 1.52135622500000 7.28166471250000 
 S -3.54769981562500 5.01649222500000 6.96659471250000 
