16

 C -3.49849472500000 1.78115511562500 5.58383679687500 
 C -2.94131372500000 5.16239011562500 5.56950479687500 
 C -4.68000172500000 1.29909711562500 4.91047979687500 
 C -4.23961272500000 4.94300511562500 5.03407679687500 
 N -2.44754072500000 2.01094811562500 4.76031679687500 
 N -2.00381672500000 5.22144211562500 4.64815279687500 
 N -4.44761172500000 1.04645311562500 3.61777179687500 
 N -4.27004772500000 4.84699211562500 3.74963379687500 
 N -5.21259272500000 1.39179311562500 7.46703079687500 
 N -4.65231272500000 5.01519111562500 7.55335279687500 
 S -5.99981072500000 1.11605811562500 6.01847579687500 
 S -5.58785272500000 4.92043011562500 6.14865479687500 
 S -2.87433872500000 1.44421511562500 3.30424979687500 
 S -2.70629372500000 4.93539011562500 3.16519179687500 
 S -3.58493272500000 1.79989111562500 7.27390779687500 
 S -2.96697072500000 5.28588711562500 7.33801879687500 
