16

 C -3.10007873437500 1.57035953437500 5.43387055000000 
 C -3.07851473437500 5.21537653437500 5.48261955000000 
 C -4.35576973437500 1.30226353437500 4.76531555000000 
 C -4.32364173437500 4.92286553437500 4.82558755000000 
 N -2.05839373437500 1.69987753437500 4.60770855000000 
 N -2.03382673437500 5.42111853437500 4.68597755000000 
 N -4.31493673437500 1.35503053437500 3.44494555000000 
 N -4.21631173437500 4.90133753437500 3.47678455000000 
 N -4.93327273437500 1.34512153437500 7.27338855000000 
 N -4.71657373437500 4.92478853437500 7.40228255000000 
 S -5.70994273437500 1.28189653437500 5.85598555000000 
 S -5.57914273437500 4.71059553437500 5.99400355000000 
 S -2.73150973437500 1.55352753437500 3.03467255000000 
 S -2.62109673437500 5.27796753437500 3.15123455000000 
 S -3.27338773437500 1.58858253437500 7.20592555000000 
 S -3.05290173437500 5.08319053437500 7.21628955000000 
