16

 C -3.18006876250000 1.45956711562500 5.44451764375000 
 C -2.99158976250000 5.10065111562500 5.50069364375000 
 C -4.46351076250000 1.40823611562500 4.85173664375000 
 C -4.27681476250000 4.87192911562500 4.89039064375000 
 N -2.17017676250000 1.58723211562500 4.62797764375000 
 N -1.97653676250000 5.35806511562500 4.67694764375000 
 N -4.40143176250000 1.46062611562500 3.54435564375000 
 N -4.26261376250000 5.03849211562500 3.57187564375000 
 N -4.87081576250000 1.46029411562500 7.32690064375000 
 N -4.73757176250000 4.75744411562500 7.45267064375000 
 S -5.77520776250000 1.34660911562500 5.92786564375000 
 S -5.57647576250000 4.46937111562500 6.00970264375000 
 S -2.73311676250000 1.67048411562500 3.09673764375000 
 S -2.64715276250000 5.28848411562500 3.11961464375000 
 S -3.21172276250000 1.64218411562500 7.11563964375000 
 S -3.10495476250000 5.03803111562500 7.22671364375000 
