16

 C -3.31449283125000 1.18867274062500 5.69057790312500 
 C -2.91938883125000 5.11798274062500 5.56095890312500 
 C -4.42190783125000 0.639011740624999 5.01877490312500 
 C -4.06340983125000 4.52995474062500 4.89892290312500 
 N -2.27421983125000 1.34675474062500 4.89114490312500 
 N -1.90091483125000 5.26159674062500 4.69301690312500 
 N -4.26503683125000 0.463117740624999 3.74899790312500 
 N -4.03643383125000 4.42330574062500 3.56631390312500 
 N -5.07500483125000 0.683607740624999 7.42853090312500 
 N -4.67145383125000 4.65779574062500 7.41422090312500 
 S -5.82628283125000 0.360791740624999 5.99881990312500 
 S -5.39397583125000 4.32571074062500 5.92377590312500 
 S -2.74808983125000 0.876845740624999 3.39111790312500 
 S -2.51122683125000 4.89525174062500 3.17093890312500 
 S -3.48713183125000 1.22064974062500 7.37551390312500 
 S -3.10205783125000 5.24997574062500 7.30393690312500 
