16

 C -3.37787938124999 1.39584258437499 5.51262642500000 
 C -2.95067238124999 5.12693558437499 5.78664242500000 
 C -4.61963438124999 1.11381858437499 4.83759142500000 
 C -4.32013538124999 4.94886958437499 5.24760942500000 
 N -2.32082538124999 1.64380258437499 4.77718942500000 
 N -1.99245338124999 5.21558858437499 4.83597142500000 
 N -4.55652838124999 1.25575458437499 3.52982442500000 
 N -4.38863038124999 4.86210158437499 3.89016542500000 
 N -5.16646438124999 1.33177258437499 7.38000842500000 
 N -4.70447538124999 5.23308558437499 7.69023542500000 
 S -5.92160538124999 0.824320584374990 5.96655042500000 
 S -5.63361038124999 4.98581058437499 6.37949642500000 
 S -2.91146038124999 1.56324258437499 3.19897242500000 
 S -2.83483638124999 5.00907658437499 3.35179742500000 
 S -3.56609738124999 1.73848958437499 7.18385742500000 
 S -3.02655538124999 5.32611558437499 7.56680142500000 
