16

 C -3.25333047500000 1.29705080937500 5.53615735625000 
 C -3.25120247500000 5.11838380937500 5.38952735625000 
 C -4.49790947500000 1.17215880937500 4.83704135625000 
 C -4.48918047500000 4.69041780937500 4.76017535625000 
 N -2.13132547500000 1.21764980937500 4.80032235625000 
 N -2.18131247500000 4.96276780937500 4.57741935625000 
 N -4.34697447500000 0.896747809375002 3.54301935625000 
 N -4.42937747500000 4.33787580937500 3.46433435625000 
 N -5.03883947500000 1.31766980937500 7.34033935625000 
 N -5.02065347500000 4.98658280937500 7.23060435625000 
 S -5.88321847500000 1.27139780937500 5.91681735625000 
 S -5.76821547500000 4.47573380937500 5.89126035625000 
 S -2.73353947500000 0.950199809375002 3.26410535625000 
 S -2.81066747500000 4.44305880937500 3.13563535625000 
 S -3.37719747500000 1.39262180937500 7.24076435625000 
 S -3.45760947500000 5.55947780937500 7.05336735625000 
