16

 C -3.19919471562500 1.58092836875000 5.59143035312500 
 C -3.04114171562500 5.32492636875000 5.51313135312500 
 C -4.36602471562500 1.21956436875000 4.88961235312500 
 C -4.25970771562500 4.98058236875000 4.89782935312500 
 N -2.13852471562500 1.93672736875000 4.86193035312500 
 N -2.00286371562500 5.38510836875000 4.65167735312500 
 N -4.18619271562500 1.35891336875000 3.58109135312500 
 N -4.24465971562500 4.70988136875000 3.58651735312500 
 N -5.05026271562500 0.877430368750001 7.30203435312500 
 N -4.80635971562500 5.25454036875000 7.42573435312500 
 S -5.82203371562500 0.776987368750000 5.75337635312500 
 S -5.54380071562500 4.78441036875000 6.02787735312500 
 S -2.60865671562500 1.73065236875000 3.32434535312500 
 S -2.66738171562500 5.01492236875000 3.18102435312500 
 S -3.38564971562500 1.19442736875000 7.28568735312500 
 S -3.16638971562500 5.42441236875000 7.23925735312500 
