16

 C -3.20049567500000 1.38002778125000 5.65824589062500 
 C -3.49957467500000 5.31357878125000 5.42239089062500 
 C -4.36372067500000 0.749086781249999 5.03214589062500 
 C -4.51698467500000 4.54066378125000 4.76883389062500 
 N -2.20127967500000 1.63072678125000 4.85321589062500 
 N -2.47956367500000 5.51835978125000 4.64019689062500 
 N -4.16596267500000 0.512503781250000 3.75300089062500 
 N -4.31102667500000 4.23632478125000 3.49767189062500 
 N -4.82885767500000 0.796661781249999 7.60024989062500 
 N -5.34348267500000 4.97216978125000 7.22227589062500 
 S -5.59059167500000 0.366778781249999 6.14112189062500 
 S -5.83642867500000 4.13277078125000 5.90338089062500 
 S -2.72198567500000 1.16598678125000 3.29821189062500 
 S -2.84099267500000 4.93571378125000 3.09778489062500 
 S -3.39753267500000 1.62561278125000 7.39429989062500 
 S -3.85660567500000 5.71300078125000 7.13654089062500 
