16

 C -3.19976931250000 1.33337212500000 5.25910328750000 
 C -2.93559331250000 5.31031812500000 5.38380428750000 
 C -4.48903631250000 0.907380125000000 4.68140028750000 
 C -4.09994931250000 4.82729012500000 4.67031028750000 
 N -2.12783331250000 1.22769312500000 4.46284128750000 
 N -1.87224031250000 5.38829612500000 4.59336828750000 
 N -4.38882731250000 0.587116124999999 3.39206628750000 
 N -3.93847231250000 4.54717312500000 3.37199528750000 
 N -4.95625131250000 1.43180612500000 7.24368528750000 
 N -4.70837931250000 4.89927612500000 7.24554428750000 
 S -5.80785031250000 0.918647124999999 5.93392028750000 
 S -5.43962631250000 4.41301612500000 5.81420628750000 
 S -2.77116031250000 0.645623125000000 3.02900928750000 
 S -2.31442331250000 4.91077612500000 3.05415728750000 
 S -3.29932331250000 1.55247512500000 6.98997728750000 
 S -3.10640731250000 5.50274212500000 7.10111428750000 
