16

 C -3.22547152187500 0.988363628124999 5.40601472500000 
 C -3.12244652187500 4.58669562812500 5.56048972500000 
 C -4.41062352187500 0.554483628124999 4.78929072500000 
 C -4.42085752187500 4.72872062812500 4.92647072500000 
 N -2.24312452187500 1.34177362812500 4.62561972500000 
 N -2.11642152187500 4.40669062812500 4.65187472500000 
 N -4.24900052187500 0.525071628124999 3.47520172500000 
 N -4.41092152187500 4.72353162812500 3.60075072500000 
 N -4.83697152187500 0.534660628124999 7.34098572500000 
 N -4.87823152187500 4.84043362812500 7.49355372500000 
 S -5.66942252187500 0.197630628124999 5.94275972500000 
 S -5.72196752187500 4.75161162812500 6.04292872500000 
 S -2.82864252187500 1.18719962812500 3.08073872500000 
 S -2.91190852187500 4.45164462812500 3.11972472500000 
 S -3.19183152187500 0.938042628124999 7.11433572500000 
 S -3.19653052187500 4.85870462812500 7.29340072500000 
