16

 C -3.06150071250000 1.21019456875000 5.34011965625000 
 C -2.88110771250000 4.99274556875000 5.72098865625000 
 C -4.32668371250000 0.848783568749996 4.65568565625000 
 C -4.09100171250000 4.53115956875000 5.08381265625000 
 N -2.09899471250000 1.59632456875000 4.46927865625000 
 N -1.92191871250000 5.29439556875000 4.86911965625000 
 N -4.18846771250000 0.959350568749995 3.32624165625000 
 N -3.96204571250000 4.36046156875000 3.76075965625000 
 N -4.89695471250000 0.751446568749995 7.17134765625000 
 N -4.56036271250000 4.80211956875000 7.69736165625000 
 S -5.55520771250000 0.315438568749996 5.70619165625000 
 S -5.38997171250000 4.39808056874999 6.26292765625000 
 S -2.65395771250000 1.39659656875000 2.93949865625000 
 S -2.42479171250000 4.85846156874999 3.38188965625000 
 S -3.36097671250000 1.24721256875000 7.09879765625000 
 S -2.96899171250000 5.32296556875000 7.47298265625000 
