16

 C -3.15325410937500 1.23184311250000 5.22101823437500 
 C -3.28095810937500 5.00029811250000 5.43794423437500 
 C -4.45200010937500 0.884277112500001 4.67684923437500 
 C -4.56612310937500 4.63309111250000 4.88658223437500 
 N -2.19862810937500 1.15262911250000 4.25921823437500 
 N -2.27374510937500 5.21268411250000 4.62106723437500 
 N -4.50595710937500 0.655578112500002 3.34499623437500 
 N -4.52355610937500 4.51552111250000 3.55599323437500 
 N -4.89534110937500 1.33139011250000 7.14104223437500 
 N -4.81749610937500 4.90104411250000 7.52632223437500 
 S -5.79669610937500 0.809619112500002 5.81678823437500 
 S -5.78071510937500 4.48535011250000 6.18297623437500 
 S -2.98598410937500 0.794552112500002 2.83299723437500 
 S -2.96788710937500 4.91008111250000 3.15390923437500 
 S -3.24696310937500 1.60365411250000 6.92039923437500 
 S -3.24443310937500 5.24989811250000 7.15340023437500 
