16

 C -3.04957453437500 1.27157594375000 5.27942323125000 
 C -2.91063753437500 5.08795094375000 5.60118423125000 
 C -4.14278753437500 0.729015943750001 4.61163823125000 
 C -4.15259053437500 4.55710194375000 5.14198223125000 
 N -2.09712853437500 1.68303194375000 4.45699723125000 
 N -2.02719053437500 5.31424694375000 4.61134923125000 
 N -4.12284153437500 0.783074943750001 3.29616023125000 
 N -4.17861553437500 4.31561994375000 3.82390323125000 
 N -4.68528453437500 0.634910943750001 7.12882323125000 
 N -4.47781553437500 5.07007894375000 7.65686523125000 
 S -5.44011053437500 0.223499943750001 5.68108923125000 
 S -5.39266753437500 4.51320994375000 6.34746023125000 
 S -2.65218753437500 1.51873194375000 2.93283123125000 
 S -2.71569753437500 4.81843694375000 3.20501523125000 
 S -3.12982053437500 1.23434594375000 7.01828323125000 
 S -2.84081953437500 5.37169094375000 7.34276523125000 
