16

 C -3.21873306875000 1.13932281562500 5.56778808437500 
 C -3.36099406875000 4.82589781562500 5.48842408437500 
 C -4.30044306875000 0.587649815624999 4.72766708437500 
 C -4.66536006875000 4.70605681562500 4.88398008437500 
 N -2.11402006875000 1.50689781562500 4.90250708437500 
 N -2.34332006875000 4.76527781562500 4.65936008437500 
 N -4.05026606875000 0.678872815624998 3.42183208437500 
 N -4.58746006875000 4.60645681562500 3.55843008437500 
 N -4.90452006875000 0.243088815624998 7.15302808437500 
 N -4.99915506875000 4.67642681562500 7.41952808437500 
 S -5.63343906875000 6.218781562499798E-002 5.65617208437500 
 S -5.87538106875000 4.59565581562500 6.04699208437500 
 S -2.54803506875000 1.34281681562500 3.31606008437500 
 S -2.98136606875000 4.62044781562500 3.13661508437500 
 S -3.48237906875000 1.02932981562500 7.23144708437500 
 S -3.34228806875000 4.80445681562500 7.25025208437500 
