16

 C -3.14192987187500 1.48443759375000 5.44516422812500 
 C -3.23924287187500 5.21055959375000 5.37342522812500 
 C -4.28827587187500 0.734007593749996 4.90801722812500 
 C -4.50035687187500 4.69618259375000 4.89714922812500 
 N -2.18214187187500 1.57276559375000 4.52389822812500 
 N -2.27874887187500 5.21092659375000 4.43530822812500 
 N -4.17378487187500 0.428996593749996 3.61042622812500 
 N -4.49480687187500 4.33564359375000 3.60867822812500 
 N -4.96431387187500 1.40913459375000 7.30743822812500 
 N -4.95458287187500 5.14670659375000 7.32569622812500 
 S -5.59120187187500 0.533398593749996 6.03972022812500 
 S -5.83473587187500 4.74544859375000 5.99575822812500 
 S -2.61638387187500 0.808200593749996 3.15618422812500 
 S -2.96995787187500 4.56010859375000 3.08576322812500 
 S -3.38489787187500 1.91666759375000 7.13021922812500 
 S -3.37941287187500 5.56739259375000 7.08287222812500 
