16

 C -3.17437668125000 1.22658417187500 5.39684774375000 
 C -3.08735868125000 5.32229617187500 5.61927774375000 
 C -4.33521368125000 0.559944171875001 4.79551274375000 
 C -4.27496668125000 4.74396617187500 5.07420574375000 
 N -2.09082468125000 1.21786917187500 4.63625574375000 
 N -2.11675468125000 5.50949417187500 4.73435774375000 
 N -4.07722468125000 -1.198282812499940E-002 3.62201674375000 
 N -4.15521768125000 4.42871617187500 3.76139074375000 
 N -5.03940768125000 1.19821317187500 7.21942274375000 
 N -4.93007268125000 5.13997217187500 7.45910774375000 
 S -5.76187668125000 0.621942171875001 5.83185274375000 
 S -5.70687568125000 4.75222517187500 5.96912874375000 
 S -2.51062668125000 0.466668171875001 3.24158574375000 
 S -2.63729868125000 4.92046117187500 3.26711674375000 
 S -3.46891768125000 1.80646017187500 7.00168174375000 
 S -3.32592068125000 5.69525317187500 7.34479574375000 
