16

 C -2.96304634375000 1.22655634062500 5.56499909375000 
 C -2.99772534375000 5.11272534062500 5.66539809375000 
 C -4.11270134375000 0.701969340624998 4.89931809375000 
 C -4.11279934375000 4.45341934062500 5.10698709375000 
 N -1.91624334375000 1.38211134062500 4.76367209375000 
 N -2.05297934375000 5.35510834062500 4.76856409375000 
 N -3.92883934375000 0.362310340624998 3.63043309375000 
 N -4.00192534375000 4.07802134062500 3.83539509375000 
 N -4.87858834375000 1.35902534062500 7.30206209375000 
 N -4.73021834375000 4.82113734062500 7.49168009375000 
 S -5.59874434375000 0.643955340624998 5.96713209375000 
 S -5.50475534375000 4.39528934062500 6.06668909375000 
 S -2.32621234375000 0.769991340624998 3.30726309375000 
 S -2.56744334375000 4.69433634062500 3.34330309375000 
 S -3.25175234375000 1.61656034062500 7.25750409375000 
 S -3.17093434375000 5.36003234062500 7.35523509375000 
