16

 C -3.28401897500000 1.33994454062500 5.35660190000000 
 C -3.19897597500000 5.43319554062500 5.62568890000000 
 C -4.41335297500000 0.637041540625002 4.81082490000000 
 C -4.39905097500000 4.79050054062500 5.02271490000000 
 N -2.17934497500000 1.30231454062500 4.62689190000000 
 N -2.16741297500000 5.52883154062500 4.83966190000000 
 N -4.20420697500000 0.122060540625002 3.60579890000000 
 N -4.22195097500000 4.46639354062500 3.77504390000000 
 N -5.04381197500000 1.60032154062500 7.10690590000000 
 N -4.99618897500000 5.18658354062500 7.45980490000000 
 S -5.72288497500000 0.545360540625001 6.01589790000000 
 S -5.72732897500000 4.48178154062500 6.13280090000000 
 S -2.59553297500000 0.543594540625001 3.19608790000000 
 S -2.68323197500000 4.81723854062500 3.37910890000000 
 S -3.48564497500000 2.02287954062500 6.88476190000000 
 S -3.39812697500000 5.72559954062500 7.38170990000000 
