16

 C -3.20223023437500 1.68895055625000 5.44658325625000 
 C -3.05582223437500 4.88268855625000 5.58045825625000 
 C -4.44185223437500 1.36547455625000 4.68469825625000 
 C -4.28603523437500 4.62892055625000 4.88026925625000 
 N -2.17593323437500 1.87284755625000 4.66336925625000 
 N -2.04916923437500 5.12979955625000 4.75348225625000 
 N -4.26258923437500 1.22028855625000 3.36715325625000 
 N -4.16804323437500 4.43033955625000 3.55994625625000 
 N -4.90739423437500 1.10617655625000 7.18538225625000 
 N -4.89522723437500 4.75152855625000 7.38389525625000 
 S -5.74212423437500 0.921980556250000 5.73911825625000 
 S -5.60605323437500 4.58277855625000 5.91697425625000 
 S -2.72847623437500 1.64755755625000 3.04537025625000 
 S -2.60054323437500 4.84368255625000 3.21618525625000 
 S -3.34833523437500 1.69902955625000 7.17876425625000 
 S -3.26613623437500 5.21375255625000 7.25926825625000 
