16

 C -3.07780258125000 1.24048537187501 5.47190465312500 
 C -2.90661958125000 5.27107737187501 5.48002765312500 
 C -4.25526058125000 0.888301371875004 4.69008865312500 
 C -4.16171858125000 4.93805137187501 4.86859465312500 
 N -1.93188358125000 1.39284737187501 4.86093165312500 
 N -1.88196858125000 5.21553837187500 4.64460565312500 
 N -3.90785458125000 0.836591371875004 3.39730665312500 
 N -4.12227458125000 4.67028837187500 3.53640965312500 
 N -4.92448758125000 1.29902937187500 7.15945365312500 
 N -4.80029858125000 5.19343137187500 7.39177065312500 
 S -5.61212858125000 0.697921371875005 5.83959065312500 
 S -5.53521358125000 4.91287237187501 5.87307965312500 
 S -2.28725758125000 1.03603337187501 3.28536165312500 
 S -2.56455358125000 4.85840637187500 3.12345065312500 
 S -3.28499158125000 1.44305937187501 7.18808965312500 
 S -3.07718458125000 5.48083537187500 7.28882365312500 
