16

 C -3.01807220625000 1.41885164062500 5.28995075000000 
 C -3.25101520625000 5.13160064062500 5.33070275000000 
 C -4.30027720625000 1.00540664062500 4.79305075000000 
 C -4.43147320625000 4.50422564062500 4.86714575000000 
 N -2.00235020625000 1.41352264062500 4.39999575000000 
 N -2.33596720625000 5.41996064062500 4.37546175000000 
 N -4.22952620625000 0.619745640625000 3.50743875000000 
 N -4.50559720625000 4.36345964062500 3.56304275000000 
 N -4.56885220625000 1.32606664062500 7.41967275000000 
 N -4.79306720625000 4.85496664062500 7.34287175000000 
 S -5.53581920625000 0.895888640625000 6.09258775000000 
 S -5.64248120625000 4.19081564062500 6.05115975000000 
 S -2.73038720625000 0.997712640625000 2.96769375000000 
 S -3.12783120625000 4.91864464062500 2.94268475000000 
 S -2.95263520625000 1.58774864062500 6.98447275000000 
 S -3.26701220625000 5.34485764062500 7.09983775000000 
