16

 C -3.30426021562500 1.08368486875000 5.69884132500000 
 C -2.89152321562500 5.02779286875000 5.52154932500000 
 C -4.48971121562500 0.580809868750002 4.98198032500000 
 C -4.03251421562500 4.46223886875000 4.88971432500000 
 N -2.29219721562500 1.44342586875000 4.88281332500000 
 N -1.88176221562500 5.29363886875000 4.72202832500000 
 N -4.27603921562500 0.433762868750002 3.64236032500000 
 N -3.95356321562500 4.34718186875000 3.57191132500000 
 N -5.12766821562500 0.702523868750002 7.47631832500000 
 N -4.71294121562500 4.66271886875000 7.42487832500000 
 S -5.84806721562500 0.356272868750002 5.97419032500000 
 S -5.38898521562500 4.36595186875000 5.90947932500000 
 S -2.66289521562500 0.852047868750002 3.35445032500000 
 S -2.47072621562500 4.90827886875000 3.13224832500000 
 S -3.48259021562500 1.14303486875000 7.45775032500000 
 S -3.10563521562500 5.23342786875000 7.27396732500000 
