16

 C -3.09445205937500 1.19312830312500 5.61980738750000 
 C -3.04218205937500 4.83302930312500 5.50608438750000 
 C -4.33580605937500 0.802925303124999 5.06729038750000 
 C -4.24386505937500 4.38231830312500 4.87329738750000 
 N -2.00772005937500 1.27381630312500 4.82830738750000 
 N -1.98945405937500 4.85695430312500 4.68264538750000 
 N -4.24971505937500 0.521682303124999 3.75766838750000 
 N -4.13721105937500 4.11829930312500 3.57674838750000 
 N -4.78127605937500 1.03082230312500 7.64806938750000 
 N -4.89769605937500 4.89264730312500 7.23424038750000 
 S -5.69201005937500 0.731922303125000 6.28450138750000 
 S -5.57787405937500 4.08283130312500 5.88559138750000 
 S -2.65100205937500 0.782388303124999 3.37306438750000 
 S -2.52637905937500 4.36674830312500 3.22305638750000 
 S -3.24976605937500 1.63477530312500 7.37589638750000 
 S -3.30110405937500 5.37608330312500 7.16682338750000 
