16

 C -3.11104208437500 1.27146588125000 5.54797062187500 
 C -2.99506508437500 5.12121788125000 5.62778662187500 
 C -4.25524308437500 0.728908881249998 4.84002262187500 
 C -4.10402108437500 4.53156888125000 4.95166062187500 
 N -1.99077808437500 1.23097988125000 4.84842362187500 
 N -1.94153708437500 5.31698988125000 4.82930662187500 
 N -4.03573208437500 0.427546881249998 3.58849162187500 
 N -3.92654108437500 4.32510088125000 3.64542562187500 
 N -4.92219608437500 1.00023788125000 7.32713262187500 
 N -4.69104508437500 4.70033988125000 7.48655262187500 
 S -5.62063908437500 0.580657881249998 5.84589162187500 
 S -5.45807108437500 4.32495988125000 6.06587762187500 
 S -2.45611608437500 0.850418881249998 3.33651862187500 
 S -2.45142608437500 4.91201588125000 3.29626862187500 
 S -3.25765608437500 1.27764988125000 7.24788662187500 
 S -3.15124808437500 5.35983688125000 7.32733962187500 
