16

 C -3.09699833437500 1.73742250000000 5.73126625937500 
 C -3.05646933437500 5.19781050000000 5.65203125937500 
 C -4.37586333437500 1.55192050000000 5.06185925937500 
 C -4.34001533437500 4.97273850000000 5.02111925937500 
 N -2.06190033437500 1.73632250000000 4.91441725937500 
 N -2.03541533437500 5.42254750000000 4.81509625937500 
 N -4.34024533437500 1.48973750000000 3.75097225937500 
 N -4.28549633437500 4.94105150000000 3.70254125937500 
 N -4.80730133437500 1.53002850000000 7.66031525937500 
 N -4.84016933437500 4.98837250000000 7.56474225937500 
 S -5.69755933437500 1.31669150000000 6.26663025937500 
 S -5.65662033437500 4.68263550000000 6.15611425937500 
 S -2.70883633437500 1.72210150000000 3.32705425937500 
 S -2.66406733437500 5.29897550000000 3.29106125937500 
 S -3.22267933437500 1.88418150000000 7.50084325937500 
 S -3.23042633437500 5.30553850000000 7.33420325937500 
