16

 C -3.13241219062500 0.927772368749995 5.61193741875000 
 C -3.17594019062500 4.87546936874999 5.33925041875000 
 C -4.40811219062500 0.804672368749995 4.88467741875000 
 C -4.37925719062500 4.49555536875000 4.64640041875000 
 N -2.07007819062500 0.942422368749996 4.85814541875000 
 N -2.11393819062500 5.03318636874999 4.55678341875000 
 N -4.18782319062500 0.789670368749995 3.57996341875000 
 N -4.21682319062500 4.28668236874999 3.32400441875000 
 N -5.01342319062500 0.615652368749995 7.38050841875000 
 N -4.90668219062500 4.68723836874999 7.14952041875000 
 S -5.78190419062500 0.401629368749995 5.93025541875000 
 S -5.65675919062500 4.13862736875000 5.77846741875000 
 S -2.57387519062500 0.936972368749995 3.30249641875000 
 S -2.62016019062500 4.69721936874999 3.03576041875000 
 S -3.36527819062500 0.905544368749995 7.29713941875000 
 S -3.44700919062500 5.38103536874999 7.01496441875000 
