16

 C -3.04661975625000 1.40540066875000 5.30855484375000 
 C -3.30797475625000 4.92639366875000 5.48595684375000 
 C -4.23706875625000 0.870863668750000 4.79825684375000 
 C -4.48838375625000 4.43731566875000 4.83801484375000 
 N -2.05002075625000 1.62899666875000 4.43692384375000 
 N -2.33051675625000 5.28186866875000 4.66934084375000 
 N -4.25673875625000 0.810168668750000 3.47923284375000 
 N -4.38360075625000 4.34336466875000 3.50408084375000 
 N -4.78230275625000 1.08210266875000 7.33662484375000 
 N -5.01573775625000 4.55236866875000 7.42141584375000 
 S -5.59848075625000 0.750107668750000 5.94574284375000 
 S -5.73826875625000 4.07204466875000 6.00901784375000 
 S -2.78648675625000 1.32589166875000 2.94061484375000 
 S -2.90329175625000 5.06201466875000 3.13950484375000 
 S -3.24923475625000 1.66298266875000 7.08231184375000 
 S -3.43237975625000 5.03537666875000 7.24767484375000 
