16

 C -3.35242660625001 1.61557962500000 5.78904970937500 
 C -3.06559860625001 5.34411662500000 5.82753670937500 
 C -4.48277560625001 1.08369762500000 5.06433970937500 
 C -4.26991660625001 4.81590062500000 5.23607370937500 
 N -2.23680160625001 1.80311262500000 5.07644570937500 
 N -2.06718760625001 5.42725162500000 4.99892770937500 
 N -4.31725960625001 1.01696062500000 3.71385870937500 
 N -4.19150160625001 4.57937962500000 3.95195870937500 
 N -5.02929360625001 1.25236562500000 7.67218270937500 
 N -4.83297360625001 4.92400662500000 7.71718070937500 
 S -5.76655560625001 0.751925625000002 6.27074070937500 
 S -5.49681760625001 4.32344262500000 6.30329470937500 
 S -2.57415260625001 1.28839262500000 3.54324470937500 
 S -2.62385060625001 4.89876462500000 3.51015670937500 
 S -3.46811060625001 1.88601762500000 7.47270270937500 
 S -3.33655060625001 5.52279462500000 7.57887370937500 
