16

 C -3.10288806250000 1.18802048437500 5.76425531562500 
 C -3.22760006250000 5.02527348437500 5.53145231562500 
 C -4.35556206250000 0.881767484375002 5.19254831562500 
 C -4.46439506250000 4.55940148437500 4.95954231562500 
 N -2.09183006250000 1.16881748437500 4.92548331562500 
 N -2.18789406250000 5.14331848437500 4.72225431562500 
 N -4.31871306250000 0.592714484375002 3.89963831562500 
 N -4.39367306250000 4.53048648437500 3.61739231562500 
 N -4.73565506250000 1.47017248437500 7.60031231562500 
 N -4.81137706250000 5.00720748437500 7.49210531562500 
 S -5.63406006250000 1.08803048437500 6.29435431562500 
 S -5.73824306250000 4.51813348437500 6.12590131562500 
 S -2.70939106250000 0.711717484375001 3.52715431562500 
 S -2.80336606250000 4.86196448437500 3.20500831562500 
 S -3.14030006250000 1.76899848437500 7.38082231562500 
 S -3.19977706250000 5.44847648437500 7.26019431562500 
