16

 C -3.28669336875000 1.39781130937500 5.55570220000000 
 C -2.95188736875000 5.23630230937500 5.42888420000000 
 C -4.44481936875000 0.695684309374999 5.05029820000000 
 C -4.20706136875000 4.92398930937500 4.81625420000000 
 N -2.27873536875000 1.60714230937500 4.70819220000000 
 N -1.92840736875000 5.38493330937500 4.65480620000000 
 N -4.32147336875000 0.440598309374999 3.74964120000000 
 N -4.11897336875000 4.86362430937500 3.50896420000000 
 N -5.05358436875000 1.26031830937500 7.37304120000000 
 N -4.67916436875000 5.12655730937500 7.37228520000000 
 S -5.64604936875000 0.355193309374999 6.15980020000000 
 S -5.48695936875000 4.67853530937500 5.99289720000000 
 S -2.85348236875000 1.03363330937500 3.21969320000000 
 S -2.55029536875000 5.11347530937500 3.05266120000000 
 S -3.55345936875000 1.85074030937500 7.20088820000000 
 S -3.05950736875000 5.39502930937500 7.14561720000000 
