16

 C -3.59227165937500 1.09011169687500 5.58244816875000 
 C -2.96776165937500 4.96282769687500 5.42064016875000 
 C -4.76045665937500 0.572384696875001 4.89373916875000 
 C -4.19774765937500 4.47958369687500 4.85050916875000 
 N -2.58241965937500 1.46989969687500 4.78852316875000 
 N -1.98726565937500 5.24171769687500 4.58678416875000 
 N -4.56018965937500 0.421743696875001 3.56305416875000 
 N -4.05935465937500 4.19662869687500 3.56118716875000 
 N -5.33228465937500 0.573890696875001 7.49755416875000 
 N -4.67026065937500 4.81820969687500 7.35631516875000 
 S -6.06924565937500 0.234974696875001 6.04953216875000 
 S -5.55525665937500 4.38466869687500 6.03508716875000 
 S -2.91755565937500 0.896070696875000 3.25618216875000 
 S -2.44825465937500 4.65664969687500 3.12857216875000 
 S -3.80612765937500 1.16139869687500 7.32128516875000 
 S -3.12591265937500 5.37343669687500 7.07954816875000 
