16

 C -3.16531682500000 1.70192558437500 5.74354597187500 
 C -3.09492982500000 5.27699658437500 5.88160697187500 
 C -4.25269582500000 1.00739658437500 5.09246597187500 
 C -4.27660082500000 4.65018158437500 5.30919097187500 
 N -2.15695382500000 1.97543658437500 4.88125797187500 
 N -2.14516282500000 5.57057858437500 5.04606797187500 
 N -4.16839682500000 0.776357584374995 3.76293097187500 
 N -4.13296082500000 4.50285958437500 3.96629997187500 
 N -5.05655182500000 1.10170358437500 7.43648597187500 
 N -4.66336982500000 4.89807058437500 7.89450597187500 
 S -5.68075182500000 0.642741584374996 5.96047997187500 
 S -5.63707282500000 4.47449458437500 6.48112097187500 
 S -2.72051982500000 1.45668458437500 3.32989097187500 
 S -2.60159182500000 5.08294658437500 3.54640797187500 
 S -3.56184382500000 1.87589058437500 7.47887297187500 
 S -3.17729582500000 5.59718158437500 7.57279697187500 
