16

 C -3.30377934375000 1.26363749375000 5.52567595937500 
 C -3.27771934375000 5.01857049375000 5.14147395937500 
 C -4.54236734375000 0.995483493749999 4.83578595937500 
 C -4.46199834375000 4.39927849375000 4.57617895937500 
 N -2.23890234375000 1.24964049375000 4.70553995937500 
 N -2.29784134375000 5.19921849375000 4.29087195937500 
 N -4.52635134375000 0.913537493749999 3.47995395937500 
 N -4.29921034375000 4.07169049375000 3.27515995937500 
 N -5.17355234375000 1.13134549375000 7.33415495937500 
 N -4.94536034375000 4.91273949375000 7.05633995937500 
 S -5.91108834375000 0.732304493749999 5.90821295937500 
 S -5.79513934375000 4.46231649375000 5.67401295937500 
 S -2.86262534375000 1.12806749375000 3.19186795937500 
 S -2.70047834375000 4.57184149375000 2.88546495937500 
 S -3.56264834375000 1.45269349375000 7.28356595937500 
 S -3.38633034375000 5.31071649375000 6.84335695937500 
