16

 C -2.87240316562500 1.72514212812500 5.73440205000000 
 C -3.33008216562500 5.41461712812500 5.33374705000000 
 C -4.16819616562500 1.56812812812500 5.04985405000000 
 C -4.53881816562500 4.91562912812500 4.73564805000000 
 N -1.84054016562500 1.91118212812500 4.89370505000000 
 N -2.31931316562500 5.67430712812500 4.49705605000000 
 N -4.13512116562500 1.56180812812500 3.72446405000000 
 N -4.50314816562500 4.85199612812500 3.38404405000000 
 N -4.68144616562500 1.65869712812500 7.59931905000000 
 N -4.94873616562500 5.08275212812500 7.32641105000000 
 S -5.49876816562500 1.42128312812500 6.16482805000000 
 S -5.66396516562500 4.46024912812500 5.98294305000000 
 S -2.57470416562500 1.75207412812500 3.36167805000000 
 S -2.92404216562500 5.31974712812500 3.02024605000000 
 S -2.99860016562500 1.82543712812500 7.43476905000000 
 S -3.42982816562500 5.70168012812500 7.01579705000000 
