16

 C -3.23553040000000 1.52869073437500 5.55583315000000 
 C -3.01429040000000 5.30595273437500 5.61312215000000 
 C -4.39053140000000 1.24106873437500 4.76923115000000 
 C -4.30883640000000 5.07177273437500 4.97052915000000 
 N -2.15023940000000 1.82045873437500 4.82929715000000 
 N -2.03330440000000 5.45760273437500 4.74101815000000 
 N -4.19023640000000 1.19075273437500 3.45199015000000 
 N -4.21279540000000 4.80383873437500 3.66940615000000 
 N -4.99794440000000 0.652122734375003 7.21713915000000 
 N -4.80433940000000 5.04791773437500 7.51811115000000 
 S -5.69934040000000 0.723117734375003 5.74547315000000 
 S -5.68191540000000 4.95395573437500 6.04933915000000 
 S -2.61663340000000 1.70547573437500 3.26360715000000 
 S -2.64193640000000 5.00513473437500 3.22709415000000 
 S -3.52342940000000 1.37058673437500 7.34035115000000 
 S -3.12520940000000 5.55584573437500 7.36964015000000 
