16

 C -3.25855223125000 1.19138362187500 5.55523507500000 
 C -3.00098123125000 5.03745962187500 5.48079707500000 
 C -4.56592623125000 0.866838621875000 4.98633607500000 
 C -4.20959123125000 4.86131762187500 4.72751807500000 
 N -2.32107023125000 1.32999162187500 4.60057407500000 
 N -1.97124123125000 5.25096862187500 4.66928907500000 
 N -4.57818623125000 0.611672621875000 3.65999107500000 
 N -4.09865023125000 4.80648462187500 3.40158507500000 
 N -4.82701823125000 0.812524621874999 7.53034507500000 
 N -4.82603323125000 4.64650062187500 7.25796707500000 
 S -5.80293523125000 0.838026621875000 6.18255507500000 
 S -5.59058723125000 4.63070562187500 5.83690007500000 
 S -3.05820823125000 1.02460062187500 3.14305107500000 
 S -2.48369223125000 5.02868562187500 3.08303707500000 
 S -3.24544123125000 1.44772062187500 7.30926707500000 
 S -3.24785123125000 5.13908862187500 7.16637407500000 
