16

 C -2.95725631250000 1.46674254062499 5.48076117187500 
 C -3.15908931250000 5.08835054062499 5.56898817187500 
 C -4.23085631250000 1.30427254062499 4.80937617187500 
 C -4.35087031250000 4.60067954062499 4.92621517187500 
 N -1.89855331250000 1.31319254062499 4.65454417187500 
 N -2.16271631250000 5.23219854062499 4.65541417187500 
 N -4.20058131250000 1.07836954062499 3.48421417187500 
 N -4.24476431250000 4.27513754062499 3.64729417187500 
 N -4.76313131250000 1.56773054062499 7.32745217187500 
 N -5.04332631250000 5.16316554062499 7.31251217187500 
 S -5.59967031250000 1.48854354062499 5.88406017187500 
 S -5.75451331250000 4.62870654062499 5.89982417187500 
 S -2.53836131250000 1.14588254062499 3.19092517187500 
 S -2.68315931250000 4.70144454062499 3.21237817187500 
 S -3.09023831250000 1.66979354062499 7.18064417187500 
 S -3.36330531250000 5.39380354062499 7.28378217187500 
