16

 C -3.02476892187500 1.51863712812500 5.34892087812500 
 C -3.23592692187500 5.41992412812500 5.86371087812500 
 C -4.23046092187500 1.01154012812500 4.68812787812500 
 C -4.38033092187500 4.91626512812500 5.17570687812500 
 N -1.98043192187500 1.60444012812500 4.55486087812500 
 N -2.10544192187500 5.57815912812500 5.13185987812500 
 N -4.07704792187500 0.712066128125001 3.42335087812500 
 N -4.17314192187500 4.66781612812500 3.88300387812500 
 N -4.86217092187500 1.38729412812500 7.15873787812500 
 N -5.10657992187500 5.13452512812500 7.67831187812500 
 S -5.51462492187500 0.723238128125002 5.78663187812500 
 S -5.83096392187500 4.68353712812500 6.17872487812500 
 S -2.47459992187500 1.06847112812500 3.00920287812500 
 S -2.61006492187500 5.04802912812500 3.55081887812500 
 S -3.24558292187500 1.83453012812500 7.03039687812500 
 S -3.46611492187500 5.49447912812500 7.61529787812500 
