16

 C -2.94480545000000 1.53290491875000 5.43465657812500 
 C -3.13086645000000 5.11509191875000 5.54842957812500 
 C -4.23440945000000 1.34286391875000 4.77696257812500 
 C -4.34414045000000 4.57904291875000 4.92193157812500 
 N -1.86374945000000 1.35279891875000 4.67710657812500 
 N -2.14521545000000 5.29537291875000 4.65377757812500 
 N -4.16072145000000 1.15034991875000 3.43870757812500 
 N -4.22784145000000 4.27399191875000 3.62826257812500 
 N -4.71079245000000 1.59876391875000 7.31885857812500 
 N -5.05014545000000 5.13481291875000 7.30378857812500 
 S -5.58057545000000 1.46611691875000 5.90716657812500 
 S -5.75885045000000 4.65123191875000 5.88643357812500 
 S -2.52257145000000 1.16985391875000 3.17678057812500 
 S -2.65921845000000 4.72049691875000 3.21524257812500 
 S -3.06377745000000 1.72780691875000 7.17346657812500 
 S -3.34167245000000 5.36191691875000 7.31456257812500 
