16

 C -3.26723228437500 1.02920398437500 5.66084438125000 
 C -2.99765728437500 5.09104498437500 5.46039138125000 
 C -4.42323528437500 0.538778984374996 4.94862838125000 
 C -4.10960828437500 4.43945398437500 4.80368438125000 
 N -2.15612128437500 1.17890998437500 4.94420438125000 
 N -1.89666328437500 5.30636098437500 4.72033138125000 
 N -4.14756028437500 0.387989984374997 3.68536438125000 
 N -3.88961828437500 4.28755498437500 3.49548438125000 
 N -5.18035528437500 0.772149984374996 7.39070138125000 
 N -4.73425128437500 4.77568398437500 7.31512738125000 
 S -5.82243728437500 0.343748984374996 5.95125138125000 
 S -5.51074628437500 4.32260298437500 5.88082438125000 
 S -2.62766028437500 0.955264984374996 3.35063438125000 
 S -2.36123728437500 4.85319698437500 3.15324138125000 
 S -3.54490728437500 0.973917984374997 7.33092938125000 
 S -3.07961028437500 5.16451598437500 7.16995338125000 
