16

 C -3.51454415937500 1.11372906875000 5.60102755937500 
 C -2.99277415937500 5.04463306875000 5.47033655937500 
 C -4.63121815937500 0.524882068750002 4.92505555937500 
 C -4.17195215937500 4.50135706875000 4.83382155937500 
 N -2.49752215937500 1.37853406875000 4.79364055937500 
 N -1.94817915937500 5.21286106875000 4.64751055937500 
 N -4.52324915937500 0.484287068750002 3.61290555937500 
 N -4.01954815937500 4.27131706875000 3.52786655937500 
 N -5.31203515937500 0.652937068750002 7.49388255937500 
 N -4.68100215937500 4.81117306875000 7.40424355937500 
 S -6.04332215937500 0.234197068750002 6.01516555937500 
 S -5.52320415937500 4.37380606875000 6.02939855937500 
 S -2.85741015937500 0.866397068750002 3.22870055937500 
 S -2.45025715937500 4.68798006875000 3.13736155937500 
 S -3.75786915937500 1.18412206875000 7.32538455937500 
 S -3.13387915937500 5.36682906875000 7.14866455937500 
