16

 C -3.30254649062499 1.26170253749999 5.52565539062500 
 C -3.27922749062499 5.02147653749999 5.14273139062500 
 C -4.54055649062499 1.00613353749999 4.83152139062500 
 C -4.46356449062499 4.40423953749999 4.58309139062500 
 N -2.23413149062499 1.24771253749999 4.70749839062500 
 N -2.29372349062499 5.19782053749999 4.28972639062500 
 N -4.52590049062499 0.918401537499993 3.47633139062500 
 N -4.30362649062499 4.07212153749999 3.27685039062500 
 N -5.17595449062499 1.13629653749999 7.33487639062500 
 N -4.94659449062499 4.91119453749999 7.05950239062500 
 S -5.90923349062499 0.742689537499993 5.90984639062500 
 S -5.80045849062499 4.46649953749999 5.67853939062500 
 S -2.86269349062499 1.12239553749999 3.19277639062500 
 S -2.70123849062499 4.56693653749999 2.89070139062500 
 S -3.56157949062499 1.45154153749999 7.28712539062500 
 S -3.38590049062499 5.31706753749999 6.85169339062500 
