16

 C -2.86902045312500 1.25605466562500 5.52985520000000 
 C -2.92094045312500 5.13945866562500 5.64768620000000 
 C -4.09580245312500 0.865687665624999 4.88543820000000 
 C -4.09890445312500 4.57987566562500 5.00914220000000 
 N -1.85534745312500 1.44755966562500 4.66317020000000 
 N -1.96873145312500 5.47060266562500 4.78616320000000 
 N -3.96946845312500 0.682726665624999 3.56665020000000 
 N -3.93486145312500 4.31720766562500 3.71307220000000 
 N -4.79759545312500 1.02290066562500 7.34624420000000 
 N -4.69823945312500 4.63442066562500 7.48939520000000 
 S -5.51946245312500 0.711843665625000 5.88847820000000 
 S -5.46130345312500 4.34504666562500 6.04124420000000 
 S -2.32827145312500 0.874732665624999 3.15684920000000 
 S -2.47487145312500 4.86338366562500 3.29967120000000 
 S -3.16987045312500 1.31951266562500 7.28681320000000 
 S -3.21507745312500 5.38666766562500 7.37732420000000 
