16

 C -3.10194266562500 1.40138703750000 5.32786493437500 
 C -3.08794966562500 5.28576403750000 6.03061393437500 
 C -4.24681966562500 0.884998037500001 4.67700193437500 
 C -4.36490266562500 4.96193003750000 5.37921193437500 
 N -2.06642366562500 1.76967203750000 4.56527993437500 
 N -2.08965666562500 5.32920703750000 5.15947693437500 
 N -4.06354966562500 0.828164037500001 3.33029793437500 
 N -4.28067766562500 4.83354903750000 4.06853893437500 
 N -4.79102166562500 1.12199803750000 7.22122293437500 
 N -5.06920266562500 5.08339303750000 7.78825793437500 
 S -5.60574266562500 0.665469037500001 5.84932693437500 
 S -5.79634066562500 4.86328703750000 6.30444593437500 
 S -2.50432666562500 1.40900003750000 3.06613793437500 
 S -2.68608866562500 5.11154403750000 3.64507493437500 
 S -3.24468466562500 1.57615803750000 7.05928593437500 
 S -3.42305666562500 5.50160003750000 7.76996593437500 
