16

 C -3.00361278750000 1.30439536875000 5.63708187812500 
 C -3.19966578750000 5.29776436875000 5.32543487812500 
 C -4.17826578750000 0.719072368750000 5.02698287812500 
 C -4.16554778750000 4.27768036875000 4.97233887812500 
 N -1.91245978750000 1.47745936875000 4.86541087812500 
 N -2.16990778750000 5.48675536875000 4.51013587812500 
 N -4.02232978750000 0.542294368750000 3.71694287812500 
 N -4.00558078750000 3.91767036875000 3.72022387812500 
 N -4.84470778750000 0.999347368750001 7.46194087812500 
 N -4.92263878750000 5.16288236875000 7.25681287812500 
 S -5.53100978750000 0.446482368750001 6.04983387812500 
 S -5.50361278750000 4.09222636875000 6.05793987812500 
 S -2.43544478750000 0.957423368750001 3.39935187812500 
 S -2.53157778750000 4.51476036875000 3.22195687812500 
 S -3.28961278750000 1.58118836875000 7.29062487812500 
 S -3.43673778750000 5.92702336875000 6.94319487812500 
