16

 C -2.79197872812500 1.71872990937500 5.28145541250000 
 C -3.30179872812500 5.01114190937500 5.57926041250000 
 C -3.92729372812500 1.07237890937500 4.75009941250000 
 C -4.52670972812500 4.66225090937500 4.89954341250000 
 N -1.91199272812500 2.02463590937500 4.36304141250000 
 N -2.29511272812500 5.40859790937500 4.76535641250000 
 N -3.87761772812500 0.781483909375001 3.46139341250000 
 N -4.36605672812500 4.56354390937500 3.58923341250000 
 N -4.23861172812500 1.06918190937500 7.35025041250000 
 N -5.06997472812500 4.43233390937500 7.46889641250000 
 S -5.06027072812500 0.566409909375001 6.02005941250000 
 S -5.78985272812500 3.98649490937500 6.02731241250000 
 S -2.41103972812500 1.40892090937500 2.88514741250000 
 S -2.79556672812500 5.04428490937500 3.23392041250000 
 S -2.76389372812500 1.78829690937500 7.09286641250000 
 S -3.48416172812500 4.97145290937500 7.32934141250000 
