16

 C -3.10179079687500 1.37206722500000 5.44717723750000 
 C -3.34197579687500 5.31840822500000 5.18215423750000 
 C -4.27019479687500 0.791182224999999 4.90204223750000 
 C -4.34713779687500 4.39922322500000 4.66214723750000 
 N -2.12597579687500 1.65388922500000 4.61996623750000 
 N -2.35805179687500 5.55876022500000 4.31835223750000 
 N -4.17891179687500 0.542018225000000 3.60469823750000 
 N -4.11867579687500 3.95563122500000 3.45212523750000 
 N -4.79109379687500 1.23521222500000 7.40629823750000 
 N -5.17702079687500 4.94578922500000 6.98314723750000 
 S -5.57053079687500 0.643355225000000 6.00536523750000 
 S -5.75047079687500 4.10058222500000 5.64308223750000 
 S -2.60696579687500 1.10290622500000 3.16366423750000 
 S -2.66367179687500 4.68693922500000 2.90319423750000 
 S -3.20933979687500 1.74781522500000 7.11523423750000 
 S -3.74189179687500 5.71911822500000 6.85278323750000 
