16

 C -2.71749289375000 1.72557365312500 5.32405334687500 
 C -3.32873789375000 5.03149065312500 5.57872834687500 
 C -3.85977189375000 0.930683653125000 4.75884334687500 
 C -4.53638489375000 4.55451765312500 4.93750634687500 
 N -1.82133989375000 2.05817265312500 4.37389734687500 
 N -2.32056889375000 5.42863165312500 4.80956834687500 
 N -3.85225689375000 0.747967653125001 3.40877234687500 
 N -4.38372089375000 4.57644665312500 3.60734334687500 
 N -4.20552789375000 1.05427065312500 7.33218434687500 
 N -5.05398989375000 4.39382265312500 7.44316134687500 
 S -5.01171289375000 0.569658653125000 5.97224534687500 
 S -5.79979789375000 4.00794965312500 5.99859734687500 
 S -2.44885189375000 1.46230665312500 2.93029934687500 
 S -2.81718589375000 5.04811065312500 3.25243134687500 
 S -2.77017389375000 1.87470965312500 7.12491234687500 
 S -3.50522789375000 5.02288265312500 7.29446134687500 
