16

 C -3.25431940312500 1.34574308125000 5.43207304687500 
 C -3.16751540312500 5.41531808125000 5.76913004687500 
 C -4.39120940312500 0.801727081250000 4.75913204687500 
 C -4.32962540312500 5.04644608125000 4.98922704687500 
 N -2.24763440312500 1.67521308125000 4.64097304687500 
 N -2.09206340312500 5.52937908125000 5.02962304687500 
 N -4.27642240312500 0.678882081250000 3.42716904687500 
 N -4.15084740312500 5.04893308125000 3.68772004687500 
 N -5.17907840312500 1.17882108125000 7.16110004687500 
 N -5.05088940312500 5.24295408125000 7.40263804687500 
 S -5.75867140312500 0.373239081250000 5.82756804687500 
 S -5.73059940312500 5.07333908125000 5.93470004687500 
 S -2.75409440312500 1.22796208125000 3.06772604687500 
 S -2.55373240312500 5.30400808125000 3.41977904687500 
 S -3.53479340312500 1.47125608125000 7.19648104687500 
 S -3.45877440312500 5.53878908125000 7.54905904687500 
