16

 C -3.24676389375000 1.11323749062500 5.59768389375000 
 C -3.11261989375000 5.15672049062500 5.54158289375000 
 C -4.42652889375000 0.634062490625001 4.94502889375000 
 C -4.31589589375000 4.68266449062500 4.89704689375000 
 N -2.21254589375000 1.34407049062500 4.80391289375000 
 N -2.07181589375000 5.31298949062500 4.71180389375000 
 N -4.34561489375000 0.682403490625001 3.60485889375000 
 N -4.20173289375000 4.57597949062500 3.55144689375000 
 N -5.00967189375000 1.06109349062500 7.48526189375000 
 N -4.71250289375000 4.63395749062500 7.49090689375000 
 S -5.75249789375000 0.406789490625001 6.12320689375000 
 S -5.52021689375000 4.30309149062500 6.08889889375000 
 S -2.72810089375000 0.985421490625001 3.26744889375000 
 S -2.58243289375000 4.94371149062500 3.24173389375000 
 S -3.42186289375000 1.46093849062500 7.37841189375000 
 S -3.17957289375000 5.20583349062500 7.29473289375000 
