16

 C -3.13325583125000 1.47674560312500 5.59713560000000 
 C -3.32849883125000 5.07761260312500 5.28969460000000 
 C -4.24959883125000 0.958086603124997 4.90876860000000 
 C -4.44723983125000 4.38944360312500 4.67272160000000 
 N -2.02281383125000 1.63978660312500 4.84474460000000 
 N -2.25437583125000 5.22387660312500 4.55233560000000 
 N -4.05236883125000 0.805385603124997 3.60431060000000 
 N -4.17812183125000 3.96250060312500 3.44488160000000 
 N -5.06711983125000 1.22009660312500 7.31189360000000 
 N -5.30118583125000 5.34234460312500 6.91907460000000 
 S -5.72021083125000 1.01133760312500 5.80335360000000 
 S -5.95431883125000 4.51305760312500 5.56446960000000 
 S -2.38225683125000 1.17804560312500 3.28014460000000 
 S -2.55460783125000 4.46090060312500 3.11678260000000 
 S -3.50109583125000 1.68543160312500 7.30746360000000 
 S -3.58992683125000 5.53354760312500 6.88165660000000 
