16

 C -3.17207105625000 1.34683483437501 5.56490297187500 
 C -2.97198805625000 5.24300983437501 5.45258097187500 
 C -4.38774605625000 0.785522834375005 5.04711397187500 
 C -4.22014405625000 4.87226383437500 4.81623297187500 
 N -2.22305605625000 1.59023883437501 4.66553597187500 
 N -1.93282205625000 5.48546183437501 4.60006997187500 
 N -4.37161005625000 0.576265834375005 3.76898997187500 
 N -4.16528805625000 4.86169983437500 3.45854597187500 
 N -4.86539905625000 1.25163283437501 7.55187197187500 
 N -4.55090105625000 5.07597283437500 7.34701497187500 
 S -5.60393205625000 0.518310834375005 6.22504197187500 
 S -5.44370805625000 4.66062183437501 6.02964897187500 
 S -2.85796405625000 1.04022783437500 3.17068397187500 
 S -2.64054305625000 5.29759683437501 3.05608097187500 
 S -3.26249905625000 1.81405383437501 7.29211297187500 
 S -2.98231105625000 5.40228083437501 7.15367597187500 
