16

 C -3.13075207500000 1.55334303750000 5.33385299062500 
 C -3.27319807500000 5.23557803750000 5.73150099062500 
 C -4.24707907500000 0.804055037500001 4.80525699062500 
 C -4.41445907500000 4.69389603750000 5.07345399062500 
 N -2.13575607500000 1.63253403750000 4.45445799062500 
 N -2.24284807500000 5.47319403750000 5.02130899062500 
 N -3.99442307500000 0.227807037500001 3.62068699062500 
 N -4.17555207500000 4.51245403750000 3.79425499062500 
 N -4.91081107500000 1.42657003750000 7.22005999062500 
 N -5.02934107500000 5.05206903750000 7.58045599062500 
 S -5.62990507500000 0.821736037500001 5.80148999062500 
 S -5.80821407500000 4.58789503750000 6.17769099062500 
 S -2.60552407500000 0.821747037500001 3.05360199062500 
 S -2.61172907500000 5.02065703750000 3.46002499062500 
 S -3.34686907500000 2.00318703750000 6.99400299062500 
 S -3.45213307500000 5.66383503750000 7.39076199062500 
