16

 C -3.31203875000000 1.19434354687500 5.68912523750000 
 C -2.91919575000000 5.11738454687500 5.55930823750000 
 C -4.42717675000000 0.644492546875000 5.02339223750000 
 C -4.07044975000000 4.54378154687500 4.90102423750000 
 N -2.26287375000000 1.34019254687500 4.88990423750000 
 N -1.90374275000000 5.26225654687500 4.68776723750000 
 N -4.26496175000000 0.461453546875000 3.74851823750000 
 N -4.04129675000000 4.42732454687500 3.56756923750000 
 N -5.06999875000000 0.685319546875000 7.42843623750000 
 N -4.66664275000000 4.65830454687500 7.40699323750000 
 S -5.82344675000000 0.360835546875000 6.00242423750000 
 S -5.39820975000000 4.32122854687500 5.92953223750000 
 S -2.75431175000000 0.880874546875000 3.39425423750000 
 S -2.51193875000000 4.89474054687500 3.17561223750000 
 S -3.49014275000000 1.22623354687500 7.37022123750000 
 S -3.10297175000000 5.25047154687500 7.30566423750000 
