16

 C -3.07713041562500 1.30942716875000 5.62089452812500 
 C -3.33356941562500 5.37620116875000 5.32387052812500 
 C -4.18811241562500 0.639437168749999 4.98551752812500 
 C -4.31817541562500 4.43620116875000 4.85893852812500 
 N -2.01160741562500 1.50683116875000 4.86947452812500 
 N -2.32503041562500 5.56160216875000 4.46430952812500 
 N -3.98991541562500 0.388736168749999 3.70213852812500 
 N -4.00426241562500 3.87372916875000 3.67868952812500 
 N -4.89637141562500 1.06863716875000 7.45124852812500 
 N -5.09566141562500 5.08522516875000 7.29547652812500 
 S -5.49337141562500 0.289319168749999 6.08456952812500 
 S -5.57005141562500 4.14096416875000 5.98116052812500 
 S -2.49188741562500 0.978137168749998 3.33030452812500 
 S -2.62490641562500 4.63938916875000 3.13750152812500 
 S -3.34668341562500 1.61727416875000 7.42479952812500 
 S -3.63567341562500 5.88317316875000 7.02282752812500 
