16

 C -3.35072837187500 1.64740935937500 5.46592967500000 
 C -2.95372837187500 5.35219635937500 5.86071767500000 
 C -4.37750737187500 0.868473359374997 4.80274567500000 
 C -4.20560237187500 4.80131235937500 5.31060067500000 
 N -2.25952637187500 2.03785035937500 4.72683167500000 
 N -2.05598137187500 5.60832735937500 4.92362867500000 
 N -4.05200337187500 0.683948359374996 3.49880067500000 
 N -4.23419737187500 4.60329835937500 4.00729267500000 
 N -4.95722537187500 1.07776935937500 7.33376567500000 
 N -4.70027037187500 5.12041935937500 7.79783167500000 
 S -5.67859537187500 0.407563359374997 5.96223667500000 
 S -5.52419337187500 4.61352135937500 6.41767267500000 
 S -2.64559837187500 1.55219135937500 3.21019067500000 
 S -2.75909237187500 5.16077335937500 3.47859467500000 
 S -3.43027537187500 1.64793635937500 7.15722967500000 
 S -3.03077537187500 5.44006735937500 7.66319167500000 
