16

 C -3.16816770625000 1.40173760625000 5.33142339687500 
 C -3.37671970625000 5.23150760625000 5.31250039687500 
 C -4.46257770625000 0.980234606250000 4.82182939687500 
 C -4.55470570625000 4.62641960625000 4.81711039687500 
 N -2.14001570625000 1.51096260625000 4.47996239687500 
 N -2.47677170625000 5.56020860625000 4.35392939687500 
 N -4.40166570625000 0.755391606250000 3.51039839687500 
 N -4.57379970625000 4.31481860625000 3.53872139687500 
 N -4.57670170625000 1.25583060625000 7.34380239687500 
 N -4.86957770625000 4.63331860625000 7.44381139687500 
 S -5.61438270625000 0.920429606250001 6.11729939687500 
 S -5.68415370625000 4.21956360625000 6.03617239687500 
 S -2.73048270625000 0.922747606250000 3.05713339687500 
 S -3.07866170625000 4.93381960625000 2.92972039687500 
 S -3.01060070625000 1.54836860625000 7.03227039687500 
 S -3.30013270625000 5.26314760625000 7.13015439687500 
