16

 C -3.06490304687500 1.51806494062500 5.75074507187500 
 C -3.04429604687500 4.65257794062500 5.49801607187500 
 C -4.30793004687500 1.14143494062500 5.11657207187500 
 C -4.28796204687500 4.28990094062500 4.86104007187500 
 N -2.07277404687500 1.69066894062500 4.92616107187500 
 N -1.99051904687500 4.72951994062500 4.68307107187500 
 N -4.18081404687500 0.917074940625003 3.82074507187500 
 N -4.21323504687500 4.06304394062500 3.54487307187500 
 N -4.78377904687500 1.48702794062500 7.55892807187500 
 N -4.87525704687500 4.50816594062500 7.36447107187500 
 S -5.67506204687500 1.18915994062500 6.18937407187500 
 S -5.69432404687500 4.18065294062500 5.93331707187500 
 S -2.62255404687500 1.21033094062500 3.38356207187500 
 S -2.63619304687500 4.38098294062500 3.11710807187500 
 S -3.14109104687500 1.72394794062500 7.42841207187500 
 S -3.24237804687500 4.64116094062500 7.28277607187500 
