16

 C -3.17105344687500 1.70230680937500 5.39675245937500 
 C -3.06009944687500 5.03272280937500 5.57927545937500 
 C -4.38800744687500 1.29411180937500 4.79695045937500 
 C -4.24269244687500 4.52139980937500 4.89306245937500 
 N -2.13114544687500 1.85543580937500 4.54975445937500 
 N -2.05282744687500 5.15454380937500 4.75639345937500 
 N -4.33985044687500 1.28149280937500 3.47975545937500 
 N -4.17601844687500 4.39696980937500 3.57624045937500 
 N -4.98063944687500 1.16804680937500 7.26092345937500 
 N -4.88932044687500 4.67951280937500 7.48386645937500 
 S -5.74832344687500 0.926024809375000 5.81261645937500 
 S -5.59921744687500 4.49007380937500 5.98042545937500 
 S -2.75405744687500 1.59131780937500 3.06732845937500 
 S -2.59961444687500 4.74442080937500 3.22907845937500 
 S -3.35862244687500 1.69769580937500 7.14044045937500 
 S -3.34545544687500 5.30569680937500 7.33064245937500 
