16

 C -2.96563212812500 1.24347731562500 5.57954448437500 
 C -3.00730712812500 5.11753831562500 5.66416848437500 
 C -4.12838312812500 0.699625315624997 4.92134048437500 
 C -4.11525312812500 4.44456531562500 5.10148048437500 
 N -1.92760512812500 1.37526131562500 4.76033248437500 
 N -2.06591212812500 5.35821531562500 4.76433448437500 
 N -3.92788512812500 0.371073315624997 3.64981748437500 
 N -3.99191712812500 4.07250031562500 3.82690548437500 
 N -4.88676012812500 1.35623931562500 7.31336748437500 
 N -4.73821512812500 4.82036331562500 7.48129348437500 
 S -5.59888712812500 0.648202315624998 5.97409248437500 
 S -5.51518212812500 4.39977231562500 6.06015048437500 
 S -2.32927212812500 0.763224315624997 3.30067748437500 
 S -2.56378712812500 4.67805031562500 3.33873048437500 
 S -3.25086012812500 1.61406431562500 7.25960148437500 
 S -3.17353412812500 5.36008931562500 7.35496548437500 
