16

 C -3.24803355000000 1.19460951250000 5.55200817500000 
 C -2.98784355000000 5.02335151250000 5.47451317500000 
 C -4.55731855000000 0.842550512499999 5.00166517500000 
 C -4.20697055000000 4.89119851250000 4.72181017500000 
 N -2.33901455000000 1.31909151250000 4.58663217500000 
 N -1.95423355000000 5.25997451250000 4.66661717500000 
 N -4.57486055000000 0.608224512500000 3.68728117500000 
 N -4.07246455000000 4.81698451250000 3.39099117500000 
 N -4.83138655000000 0.834435512499999 7.54626617500000 
 N -4.83511955000000 4.66582351250000 7.25784417500000 
 S -5.78788955000000 0.829999512499999 6.18743417500000 
 S -5.56756055000000 4.63362651250000 5.82072117500000 
 S -3.05967055000000 1.01236151250000 3.12480617500000 
 S -2.46153855000000 5.03307351250000 3.08736817500000 
 S -3.24754555000000 1.43252751250000 7.30612517500000 
 S -3.23733555000000 5.13545251250000 7.17822617500000 
