16

 C -3.16371627187500 1.44680874375000 5.24025460937500 
 C -3.06921727187500 5.22663874375000 5.56692160937500 
 C -4.32252227187500 0.931398743750000 4.59869560937500 
 C -4.31220127187500 4.79381874375000 5.03701060937500 
 N -2.16718927187500 1.78776974375000 4.43690360937500 
 N -2.06370427187500 5.23696674375000 4.68363060937500 
 N -4.33743927187500 0.993998743750001 3.25851660937500 
 N -4.33152027187500 4.56150774375000 3.72847860937500 
 N -4.72316327187500 0.519204743750000 7.20260360937500 
 N -4.63198827187500 5.03883874375000 7.55859560937500 
 S -5.48542227187500 0.273993743750000 5.75616160937500 
 S -5.51413327187500 4.43967074375000 6.25706360937500 
 S -2.76486327187500 1.59481574375000 2.89925560937500 
 S -2.71478827187500 4.88903074375000 3.23126360937500 
 S -3.24787027187500 1.28317674375000 7.03689460937500 
 S -3.05488627187500 5.57932874375000 7.21598760937500 
