16

 C -2.81987454687500 1.46238924062500 5.84106214062500 
 C -3.39352954687500 5.33778724062500 5.60161914062500 
 C -4.11758754687500 1.37438924062500 5.21921214062500 
 C -4.64194854687500 4.97070424062500 4.94361314062500 
 N -1.83491054687500 1.41246724062500 4.95689514062500 
 N -2.34204554687500 5.51202224062500 4.82181214062500 
 N -4.05578954687500 1.31531224062500 3.89883014062500 
 N -4.44646054687500 4.76056924062500 3.65511914062500 
 N -4.60053554687500 1.33153224062500 7.74002614062500 
 N -5.07324454687500 5.00469724062500 7.50486714062500 
 S -5.42889054687500 1.31898624062500 6.28969014062500 
 S -5.95012554687500 4.74034124062500 6.08492114062500 
 S -2.44926754687500 1.39778724062500 3.37196114062500 
 S -2.87731054687500 5.04538724062500 3.28094914062500 
 S -2.91740754687500 1.53473124062500 7.59336114062500 
 S -3.44718254687500 5.19443624062500 7.30584214062500 
