16

 C -3.03009990937500 1.41610872187500 5.66665661875000 
 C -2.95050890937500 5.25115372187500 5.42644361875000 
 C -4.30118790937500 1.04893072187500 5.12630461875000 
 C -4.15388390937500 4.83168372187500 4.78654761875000 
 N -2.06664490937500 1.62456972187500 4.74917261875000 
 N -1.92929190937500 5.51660972187500 4.60859061875000 
 N -4.30559290937500 0.966076721874999 3.81884961875000 
 N -4.07783790937500 4.80522372187500 3.46482961875000 
 N -4.72781890937500 1.37905472187500 7.65311361875000 
 N -4.58206990937500 4.88467472187500 7.31395261875000 
 S -5.53804890937500 0.878866721874998 6.24749961875000 
 S -5.47699690937500 4.59223972187500 5.98733661875000 
 S -2.78704790937500 1.28483172187500 3.22584761875000 
 S -2.52411690937500 5.19041072187500 3.03591961875000 
 S -3.11609190937500 1.67436272187500 7.37965961875000 
 S -3.04407790937500 5.45542172187500 7.10689561875000 
