16

 C -2.93996283750000 1.38901575937500 5.53986900937500 
 C -3.10811683750000 5.21760375937500 5.12926000937500 
 C -4.13408383750000 0.988637759375002 4.86680200937500 
 C -4.35380383750000 4.74708575937500 4.61939000937500 
 N -1.76592083750000 1.37967775937500 4.82342000937500 
 N -2.07569083750000 5.28649775937500 4.31058900937500 
 N -3.92777683750000 0.698218759375002 3.59095000937500 
 N -4.31346283750000 4.51658975937500 3.30807700937500 
 N -4.92154783750000 1.51366375937500 7.21948500937500 
 N -4.71254583750000 4.88752475937500 7.09707800937500 
 S -5.60959683750000 0.859153759375002 5.84078100937500 
 S -5.65025883750000 4.81250875937500 5.74072900937500 
 S -2.29230183750000 0.958039759375001 3.26812600937500 
 S -2.72079083750000 4.89878675937500 2.85166500937500 
 S -3.25394883750000 1.59945675937500 7.24472100937500 
 S -3.14652183750000 5.36099875937500 6.86044300937500 
