16

 C -3.06003375312500 1.75448618437500 5.38022166562500 
 C -3.55493475312500 5.03247518437500 5.15231466562500 
 C -4.12335375312500 1.02446618437500 4.75748266562500 
 C -4.56489575312500 4.24962818437500 4.55125566562500 
 N -1.97446875312500 1.79962118437500 4.64538066562500 
 N -2.47537875312500 5.17126118437500 4.37745166562500 
 N -3.81469875312500 0.510251184374998 3.55130566562500 
 N -4.38978175312500 3.85159418437500 3.29331666562500 
 N -4.71706775312500 1.25044518437500 7.29098266562500 
 N -5.45593775312500 5.01447518437500 6.90534766562500 
 S -5.50392475312500 0.716031184374999 5.91435666562500 
 S -5.92766975312500 4.10504718437500 5.55250766562500 
 S -2.28821475312500 1.12575818437500 3.10870066562500 
 S -2.88252375312500 4.44776118437500 2.88867766562500 
 S -3.33365775312500 2.19039918437500 7.02037766562500 
 S -3.88428875312500 5.52932618437500 6.80814966562500 
