16

 C -3.36092242500000 1.25790527187500 5.32466927187500 
 C -3.20849142500000 5.37329627187500 5.61839327187500 
 C -4.57221542500000 0.742553271875001 4.70411727187500 
 C -4.40619642500000 5.21094827187500 4.80105127187500 
 N -2.39223442500000 1.41679227187500 4.42537827187500 
 N -2.10344742500000 5.65857527187500 4.89771427187500 
 N -4.45280842500000 0.417250271875001 3.42195327187500 
 N -4.15938042500000 5.11436827187500 3.46773827187500 
 N -5.00013042500000 1.04939927187500 7.23581627187500 
 N -5.18580142500000 5.08399627187500 7.28873127187500 
 S -5.79709042500000 0.441994271875001 5.91958527187500 
 S -5.84204742500000 5.05025927187500 5.78384827187500 
 S -2.91245642500000 0.955432271875001 2.97829427187500 
 S -2.50406842500000 5.40063127187500 3.31335927187500 
 S -3.45377342500000 1.58469727187500 7.02107727187500 
 S -3.49850342500000 5.26698527187500 7.38507127187500 
