16

 C -3.27318983750000 1.11252589062500 5.67082528125000 
 C -3.05394183750000 5.19773089062500 5.53130728125000 
 C -4.47228483750000 0.703388890625000 4.99589928125000 
 C -4.25424383750000 4.71040089062500 4.90322628125000 
 N -2.24367783750000 1.28286089062500 4.84483128125000 
 N -1.98399583750000 5.30383689062500 4.77330328125000 
 N -4.31162483750000 0.568322890625000 3.64145428125000 
 N -4.11541583750000 4.59178989062500 3.57821928125000 
 N -5.08559483750000 0.885603890625000 7.54167928125000 
 N -4.68120383750000 4.63277789062500 7.50428728125000 
 S -5.76591483750000 0.352939890625000 6.11322228125000 
 S -5.52383583750000 4.25193989062500 6.07808128125000 
 S -2.71764383750000 0.958932890625000 3.26582528125000 
 S -2.52558683750000 4.88356589062500 3.18872128125000 
 S -3.46730583750000 1.39882489062500 7.37458128125000 
 S -3.11139183750000 5.23118989062500 7.23033828125000 
