16

 C -3.09321488750000 1.23733236562500 5.45997660937500 
 C -2.88163488750000 5.27284036562500 5.48001860937500 
 C -4.25398188750000 0.886197365625005 4.68777060937500 
 C -4.14369588750000 4.93366336562501 4.86169760937500 
 N -1.93962788750000 1.43351636562500 4.84009360937500 
 N -1.88380588750000 5.22169836562500 4.62453460937500 
 N -3.92051988750000 0.817386365625005 3.36678460937500 
 N -4.14558188750000 4.66700136562500 3.53666260937500 
 N -4.93207188750000 1.29309236562501 7.17540260937500 
 N -4.79933288750000 5.17849836562501 7.38338260937500 
 S -5.60762888750000 0.687887365625004 5.83606060937500 
 S -5.51320788750000 4.92675036562500 5.87653260937500 
 S -2.28458288750000 1.03977536562500 3.29797160937500 
 S -2.58314188750000 4.85988136562501 3.12774260937500 
 S -3.28654888750000 1.42679336562500 7.18050160937500 
 S -3.08387088750000 5.47541836562501 7.28774560937500 
