16

 C -3.34455009687500 1.03077950000000 5.65779780625000 
 C -2.94289709687500 5.11385050000000 5.56631580625000 
 C -4.54177309687500 0.649295500000001 4.89861980625000 
 C -4.13579709687500 4.65189250000000 4.88913480625000 
 N -2.28125409687500 1.16838050000000 4.87234980625000 
 N -1.92894609687500 5.16136750000000 4.69669480625000 
 N -4.37920609687500 0.379526500000001 3.62311780625000 
 N -4.06243709687500 4.35087750000000 3.60050880625000 
 N -5.22536109687500 0.848847500000001 7.29679180625000 
 N -4.71068509687500 4.79550150000000 7.36993680625000 
 S -5.89761009687500 0.247656500000001 5.90635780625000 
 S -5.42766009687500 4.31076950000000 5.96956680625000 
 S -2.86795209687500 0.886464500000001 3.35029180625000 
 S -2.46933209687500 4.75589250000000 3.18946980625000 
 S -3.62180709687500 1.24997250000000 7.32115980625000 
 S -3.14803209687500 5.36780350000000 7.28735380625000 
