16

 C -3.10419940625000 1.62495792187500 5.44779497500000 
 C -2.94449440625000 5.02885792187500 5.38721897500000 
 C -4.37116540625000 1.12605892187500 4.94759397500000 
 C -4.23392240625000 4.66956692187500 4.86648997500000 
 N -2.05882040625000 1.63607292187500 4.61827697500000 
 N -1.88319940625000 4.86939892187500 4.54165897500000 
 N -4.30812440625000 0.840791921874997 3.65082597500000 
 N -4.21318740625000 4.37211992187500 3.55149797500000 
 N -4.82752840625000 1.43348992187500 7.37355397500000 
 N -4.70999740625000 5.13362992187500 7.34038197500000 
 S -5.66852140625000 0.820810921874997 6.02715097500000 
 S -5.53836240625000 4.92571392187500 5.88315097500000 
 S -2.77726240625000 1.22268392187500 3.17786497500000 
 S -2.59185640625000 4.46252292187500 3.10359897500000 
 S -3.26620140625000 1.80566792187500 7.18746097500000 
 S -3.04529540625000 5.28257492187500 7.10134797500000 
