16

 C -3.07715807499999 1.07321313750000 5.46245712500000 
 C -3.17225807499999 4.82035213750000 5.46399512500000 
 C -4.26320807499999 0.676350137500000 4.76317012500000 
 C -4.45577907499999 4.68068913750000 4.84258112500000 
 N -2.07580407499999 1.30789113750000 4.63202912500000 
 N -2.07423607499999 4.81152513750000 4.68006512500000 
 N -4.17160207499999 0.586165137500000 3.45455912500000 
 N -4.35711407499999 4.38804313750000 3.54535912500000 
 N -4.90520707499999 0.598041137500000 7.29239612500000 
 N -4.83291507499999 5.06439713750000 7.42017412500000 
 S -5.58384907499999 0.300383137500000 5.79891412500000 
 S -5.71402707499999 4.96958713750000 6.03809112500000 
 S -2.61915807499999 0.947518137500000 3.05896812500000 
 S -2.75957207499999 4.49648913750000 3.19473612500000 
 S -3.28385107499999 1.07533813750000 7.21374112500000 
 S -3.17200507499999 4.88855213750000 7.14895012500000 
