16

 C -2.86521954062500 1.65738970937500 5.74326335625000 
 C -3.08917354062500 5.33070770937500 5.68798535625000 
 C -4.18621254062500 1.50470870937500 5.08379835625000 
 C -4.35759854062500 4.90336070937500 5.15215935625000 
 N -1.84422354062500 1.74598070937500 4.88097535625000 
 N -2.08566854062500 5.33376570937500 4.79218835625000 
 N -4.16240854062500 1.55096070937500 3.76093035625000 
 N -4.39944954062500 4.75730170937500 3.84149335625000 
 N -4.66426654062500 1.66727870937500 7.64035135625000 
 N -4.85839654062500 5.26728770937500 7.62393735625000 
 S -5.47536954062500 1.43983770937500 6.16656335625000 
 S -5.62370054062500 4.79394570937500 6.24514335625000 
 S -2.61866454062500 1.82881970937500 3.39210735625000 
 S -2.86055154062500 5.04081870937500 3.30880735625000 
 S -2.97320054062500 1.82748370937500 7.50045535625000 
 S -3.22283754062500 5.58051070937500 7.41454735625000 
