16

 C -3.02423341562500 1.32890852187500 5.57971736250000 
 C -3.11920541562500 5.21082952187500 5.18651036250000 
 C -4.16921541562500 0.958761521874998 4.81064436250000 
 C -4.33818241562500 4.76230752187500 4.62409136250000 
 N -1.92047641562500 1.31592852187500 4.84181236250000 
 N -2.13195041562500 5.48898152187500 4.34265736250000 
 N -3.94399241562500 0.655449521874998 3.52877336250000 
 N -4.22090141562500 4.56307752187500 3.28641536250000 
 N -4.86342741562500 1.32810952187500 7.24415336250000 
 N -4.79128841562500 4.85834752187500 7.16713236250000 
 S -5.59626741562500 0.890158521874999 5.81155036250000 
 S -5.67723741562500 4.75029152187500 5.77654336250000 
 S -2.34094041562500 0.987616521874998 3.28542836250000 
 S -2.72277541562500 5.01345452187500 2.84790736250000 
 S -3.22984541562500 1.58440752187500 7.22177036250000 
 S -3.17593341562500 5.40372552187500 6.90236536250000 
