16

 C -3.12007609062500 1.31339269687500 5.42331930937500 
 C -2.88860909062500 5.19906669687500 5.88342930937500 
 C -4.29773909062500 0.859761696875001 4.77122130937500 
 C -4.04089009062500 4.70044369687500 5.15709530937500 
 N -2.10856309062500 1.75550869687500 4.66824430937500 
 N -1.83160809062500 5.37664969687500 5.09717330937500 
 N -4.26050709062500 0.947399696875001 3.45598930937500 
 N -3.93026809062500 4.66281469687500 3.82487930937500 
 N -4.90111609062500 0.766473696875002 7.33437930937500 
 N -4.76992109062500 4.98377969687500 7.61887930937500 
 S -5.63488409062500 0.585853696875001 5.87651930937500 
 S -5.39353609062500 4.46901969687500 6.15348830937500 
 S -2.70072209062500 1.47693069687500 3.04952830937500 
 S -2.31223509062500 5.01949069687500 3.48981830937500 
 S -3.30861509062500 1.22267069687500 7.22420530937500 
 S -3.13701609062500 5.43452369687500 7.62926930937500 
