16

 C -3.36904110937500 1.51040498437500 5.49823956250000 
 C -3.29742010937500 5.11484698437500 5.35643556250000 
 C -4.54622210937500 1.01804998437500 4.81826956250000 
 C -4.50889110937500 4.60106598437500 4.76684756250000 
 N -2.33064210937500 1.60942898437500 4.70923756250000 
 N -2.34091810937500 5.41353898437500 4.47967056250000 
 N -4.39473410937500 0.878850984374999 3.51683656250000 
 N -4.43687910937500 4.41863498437500 3.44450356250000 
 N -5.06763410937500 1.23741398437500 7.35735556250000 
 N -4.99335610937500 4.65574398437500 7.28194356250000 
 S -5.86116610937500 0.724851984374999 5.95811956250000 
 S -5.78690310937500 4.11690198437500 5.85945056250000 
 S -2.78945210937500 1.18879998437500 3.18266956250000 
 S -2.91193710937500 4.85595698437500 3.02887456250000 
 S -3.41593310937500 1.47396998437500 7.23134856250000 
 S -3.43148810937500 5.16635298437500 7.10738556250000 
