16

 C -3.21679322187500 1.53325270312500 5.38979433437500 
 C -3.36345022187500 5.33518770312500 5.47422133437500 
 C -4.40995922187500 0.805354703124999 4.80252033437500 
 C -4.47465822187500 4.68667870312500 4.84387533437500 
 N -2.30972822187500 1.84359770312500 4.47431833437500 
 N -2.41042322187500 5.79247470312500 4.65804833437500 
 N -4.36290422187500 0.665650703124999 3.48978833437500 
 N -4.38224422187500 4.61934170312500 3.49118833437500 
 N -4.93073122187500 1.15319870312500 7.31161933437500 
 N -4.98451822187500 4.88033570312500 7.41473133437500 
 S -5.66856222187500 0.448242703125000 5.94492633437500 
 S -5.75681722187500 4.37510670312500 6.02340833437500 
 S -2.95107122187500 1.26912670312500 3.00203533437500 
 S -2.89960622187500 5.30296170312500 3.15694933437500 
 S -3.34235122187500 1.68950570312500 7.08841233437500 
 S -3.42947522187500 5.39016870312500 7.18632833437500 
