16

 C -3.09594294062500 1.61894615312500 5.44737158125000 
 C -2.92782194062500 5.00145515312500 5.39373458125000 
 C -4.37252194062500 1.13207615312500 4.96234258125000 
 C -4.22877294062500 4.68025715312500 4.85117958125000 
 N -2.05341994062500 1.62431415312500 4.61210758125000 
 N -1.87900294062500 4.86714615312500 4.53801658125000 
 N -4.29918194062500 0.828443153125002 3.65158858125000 
 N -4.21261794062500 4.37919215312500 3.53938658125000 
 N -4.82941794062500 1.42931515312500 7.37680558125000 
 N -4.70985294062500 5.14144915312500 7.33450258125000 
 S -5.66619194062500 0.820143153125001 6.01857858125000 
 S -5.54144194062500 4.92962615312500 5.88462458125000 
 S -2.76143794062500 1.21548115312500 3.17672558125000 
 S -2.59682694062500 4.45960415312500 3.08891558125000 
 S -3.26591094062500 1.81052015312500 7.19119358125000 
 S -3.05197894062500 5.28356315312500 7.08990858125000 
