16

 C -3.10081513437500 1.64542805937500 5.44896079062500 
 C -3.63455713437500 5.02250505937500 5.04451379062500 
 C -4.14065313437500 0.740726059375003 4.93612379062500 
 C -4.69780313437500 4.26185005937500 4.45162279062500 
 N -2.22407013437500 2.00538205937500 4.52660079062500 
 N -2.57182313437500 5.27089505937500 4.26913679062500 
 N -3.91700213437500 0.348092059375003 3.68160079062500 
 N -4.45949113437500 3.90841005937500 3.19625879062500 
 N -4.79575013437500 1.28147305937500 7.38185479062500 
 N -5.47223513437500 4.85498105937500 6.87960179062500 
 S -5.43164613437500 0.625963059375003 5.98852579062500 
 S -6.00982613437500 3.98551405937500 5.52512979062500 
 S -2.51996913437500 1.05729905937500 3.16887379062500 
 S -2.93418713437500 4.54528905937500 2.79317479062500 
 S -3.40619913437500 2.18113405937500 7.11791679062500 
 S -3.83526213437500 5.24630405937500 6.73731079062500 
