16

 C -3.05301121250000 1.27852058125000 5.78232428750000 
 C -2.94754821250000 4.80399058125001 5.44845928750000 
 C -4.40409721250000 1.07138958125000 5.29052128750000 
 C -4.21325921250000 4.63696558125000 4.78716728750000 
 N -2.16501321250000 1.01981358125001 4.78882728750000 
 N -1.83907821250000 4.83809258125000 4.66872328750000 
 N -4.56308821250000 0.624822581250005 4.07157928750000 
 N -4.11082121250000 4.65810558125001 3.43401828750000 
 N -4.65868521250000 1.75393658125001 7.70747528750000 
 N -4.62871021250000 4.56081458125001 7.44523628750000 
 S -5.63429921250000 1.23106458125000 6.50495628750000 
 S -5.51410821250000 4.44680158125001 5.95280328750000 
 S -3.04833221250000 0.600122581250005 3.43026128750000 
 S -2.45493321250000 4.76187858125001 3.15820628750000 
 S -3.04268921250000 1.81121558125001 7.45127928750000 
 S -2.97835021250000 4.89347058125001 7.17430128750000 
