16

 C -3.07095267500000 1.24307090937500 5.68888774375000 
 C -2.95450667500000 4.86390690937500 5.46395974375000 
 C -4.34195667500000 0.895345909374998 5.01139074375000 
 C -4.18750967500000 4.40417590937500 4.88422074375000 
 N -2.08092867500000 1.33814690937500 4.82194374375000 
 N -1.93723667500000 4.94806190937500 4.60906774375000 
 N -4.25051967500000 0.728358909374998 3.71239174375000 
 N -4.06940267500000 3.91055090937500 3.64613974375000 
 N -4.77113667500000 1.24877390937500 7.55388874375000 
 N -4.72015267500000 4.98430190937500 7.40790574375000 
 S -5.60811267500000 0.840006909374998 6.22457974375000 
 S -5.52205367500000 4.31250590937500 6.09469274375000 
 S -2.60598367500000 0.914334909374999 3.31058574375000 
 S -2.51180867500000 4.30683190937500 3.15633974375000 
 S -3.13613967500000 1.56614590937500 7.40195174375000 
 S -3.13108867500000 5.32382690937500 7.07110574375000 
