16

 C -3.25338072187500 1.41717565937500 5.59586004687500 
 C -3.08020772187500 5.19383765937500 5.47845704687500 
 C -4.43646672187500 1.21206765937500 4.83349904687500 
 C -4.29673172187500 4.73163365937500 4.84724304687500 
 N -2.16900472187500 1.76066565937500 4.93598104687500 
 N -2.06573172187500 5.35059465937500 4.66193904687500 
 N -4.23248172187500 1.29108865937500 3.50791904687500 
 N -4.21002772187500 4.76201665937500 3.50334904687500 
 N -5.05136372187500 1.06907665937500 7.38269204687500 
 N -4.79080372187500 5.29396965937500 7.28110104687500 
 S -5.74865372187500 0.853960659374999 5.90885804687500 
 S -5.67688672187500 4.64798365937500 6.00555404687500 
 S -2.63877372187500 1.77714465937500 3.29677604687500 
 S -2.57935972187500 5.08223065937500 3.13110304687500 
 S -3.42658472187500 1.13930265937500 7.33407504687500 
 S -3.13056772187500 5.46575665937500 7.20724804687500 
