16

 C -3.25116781875000 1.18202393750000 5.89149879687500 
 C -2.94874081875000 4.58877693750000 5.37457079687500 
 C -4.35436281875000 0.677393937500002 5.18200479687500 
 C -4.25457981875000 4.54399893750000 4.77723579687500 
 N -2.19578581875000 1.54850393750000 5.16277679687500 
 N -2.01775381875000 4.84787693750000 4.44896879687500 
 N -4.28922481875000 0.710044937500002 3.85715779687500 
 N -4.30116681875000 4.46602693750000 3.44667479687500 
 N -4.92443181875000 0.460062937500002 7.69969379687500 
 N -4.60524281875000 4.55054393750000 7.32977979687500 
 S -5.68374981875000 0.255991937500002 6.23541679687500 
 S -5.52314881875000 4.47789993750000 5.91787479687500 
 S -2.74377381875000 1.27182893750000 3.61667979687500 
 S -2.73793481875000 4.70183793750000 2.94434079687500 
 S -3.46235181875000 1.25354493750000 7.63352879687500 
 S -3.02122481875000 4.80309393750000 7.04493679687500 
