16

 C -2.60179809062500 1.57361598125000 5.41317377500000 
 C -3.39448609062500 5.04048398125000 5.57427077500000 
 C -3.74999609062500 0.855453981250000 4.86870277500000 
 C -4.53814609062500 4.47105798125000 4.90202277500000 
 N -1.83661009062500 2.06046598125000 4.44048577500000 
 N -2.37942009062500 5.39028798125000 4.79397977500000 
 N -3.71893109062500 0.752402981250000 3.55192277500000 
 N -4.38978109062500 4.40782998125000 3.57005377500000 
 N -4.22644809062500 1.03972898125000 7.29708277500000 
 N -5.09270609062500 4.40001498125000 7.38288177500000 
 S -5.02130009062500 0.543651981250000 5.94032077500000 
 S -5.78072209062500 4.04009098125000 5.93351277500000 
 S -2.43054909062500 1.61252598125000 2.95509377500000 
 S -2.92553709062500 5.12713098125000 3.27791377500000 
 S -2.88375709062500 2.00523998125000 7.02597277500000 
 S -3.59772709062500 5.14730998125000 7.33726877500000 
