16

 C -3.14677869062500 1.42688285625000 5.58420781875000 
 C -3.00046869062500 5.32465785625000 5.87851181875000 
 C -4.34397869062500 0.935058856250001 4.86737681875000 
 C -4.13572469062500 4.78264085625000 5.16453781875000 
 N -2.10373969062500 1.70429085625000 4.82315781875000 
 N -1.91543469062500 5.54787185625000 5.13876681875000 
 N -4.23128269062500 0.899538856250001 3.52522581875000 
 N -3.92370769062500 4.57534785625000 3.85970881875000 
 N -4.84881969062500 0.961422856250001 7.40859881875000 
 N -4.80950369062500 4.84224285625000 7.63995681875000 
 S -5.70738269062500 0.708307856250002 5.95231681875000 
 S -5.54929569062500 4.78685785625000 6.17680581875000 
 S -2.66265869062500 1.37037085625000 3.28023981875000 
 S -2.36839669062500 5.11877385625000 3.55653981875000 
 S -3.26645069062500 1.46885285625000 7.29220881875000 
 S -3.18803069062500 5.29400785625000 7.58652581875000 
