16

 C -2.98013158750000 1.28464977499999 5.69028690625000 
 C -2.87476858750000 4.81023777499999 5.48484690625000 
 C -4.25887358750000 1.12298677499999 5.03047690625000 
 C -4.07704358750000 4.56073277499999 4.75723990625000 
 N -1.95027058750000 1.07885877499999 4.89604190625000 
 N -1.80801258750000 4.72981177499999 4.69313890625000 
 N -4.15018858750000 0.903634774999993 3.67836590625000 
 N -4.02654858750000 4.31063977499999 3.41393290625000 
 N -4.58971358750000 1.37550077499999 7.70047390625000 
 N -4.84117358750000 4.72835777499999 7.14741690625000 
 S -5.49909558750000 1.49099977499999 6.30906690625000 
 S -5.50655158750000 4.44187177499999 5.73169890625000 
 S -2.52212558750000 0.748522774999993 3.41573890625000 
 S -2.43225758750000 4.38664477499999 3.16375090625000 
 S -2.91033158750000 1.61223577499999 7.36870390625000 
 S -3.20848758750000 5.07356677499999 7.22196790625000 
