16

 C -3.46710010625000 1.44884967812500 5.54027876875000 
 C -3.10557910625000 5.12349367812500 5.41766976875000 
 C -4.45739610625000 0.582110678124999 4.90766476875000 
 C -4.26806610625000 4.78748367812500 4.67890576875000 
 N -2.48299710625000 1.80910767812500 4.74799476875000 
 N -1.94275810625000 5.14764067812500 4.75291876875000 
 N -4.19646610625000 0.309376678124999 3.64112476875000 
 N -3.96276810625000 4.45940767812500 3.37815376875000 
 N -5.29872110625000 0.855255678124999 7.23068976875000 
 N -4.96607910625000 5.10173067812500 7.21115676875000 
 S -5.86952210625000 0.244868678124999 5.84759476875000 
 S -5.68094310625000 4.95494167812500 5.69532776875000 
 S -2.68739210625000 0.972542678124999 3.26434476875000 
 S -2.33884010625000 4.62714767812500 3.16878876875000 
 S -3.87772610625000 1.74408067812500 7.23906576875000 
 S -3.30828010625000 5.50605267812500 7.08616976875000 
