16

 C -3.10432076875000 1.55390951875000 5.69538152812500 
 C -3.14463876875000 5.22092351875000 5.66997352812500 
 C -4.35228376875000 1.30489851875000 5.06734552812500 
 C -4.34008476875000 4.85791051875000 4.92797752812500 
 N -2.13315476875000 1.73156351875000 4.83295952812500 
 N -2.08800476875000 5.36546651875000 4.87752252812500 
 N -4.35894376875000 1.43162751875000 3.76753952812500 
 N -4.20477176875000 4.93160351875000 3.59056152812500 
 N -4.80162176875000 1.63662851875000 7.63406652812500 
 N -4.85070076875000 4.97990451875000 7.50346652812500 
 S -5.66574176875000 1.29441551875000 6.19894252812500 
 S -5.64398276875000 4.60146351875000 6.08226552812500 
 S -2.76670176875000 1.74659451875000 3.32863652812500 
 S -2.62485876875000 5.29232451875000 3.32876852812500 
 S -3.18365376875000 1.85852551875000 7.34299352812500 
 S -3.19393676875000 5.30293651875000 7.38900252812500 
