16

 C -3.23808928125000 1.22112404375000 5.50252497500001 
 C -3.18270128125000 5.46993404375000 5.54734597500000 
 C -4.42415928125000 0.794192043749999 4.84815797500000 
 C -4.23890428125000 4.84795104375000 4.79778097500000 
 N -2.20835528125000 1.37592404375000 4.73000797500000 
 N -2.15232028125000 5.74791504375000 4.77913497500001 
 N -4.32810528125000 0.788800043749999 3.52139597500000 
 N -4.15556828125000 4.97255704375000 3.47459897500000 
 N -4.89056428125000 1.03485704375000 7.35002097500000 
 N -4.88370128125000 4.81834304375000 7.40596097500000 
 S -5.68119328125000 0.517754043749999 5.98031997500000 
 S -5.50292828125000 4.36548704375000 5.94402097500000 
 S -2.70507328125000 1.01130504375000 3.20052797500000 
 S -2.65271928125000 5.53061004375000 3.18277697500000 
 S -3.28354028125000 1.28713704375000 7.23729497500000 
 S -3.34065028125000 5.54675404375000 7.30055197500000 
