16

 C -3.11276573437500 1.25730481562500 5.46851772187500 
 C -2.84896173437500 5.19476981562500 5.86131472187500 
 C -4.35812873437500 0.894314815625000 4.75191272187500 
 C -4.02093873437500 4.78387481562500 5.14818872187500 
 N -2.19676473437500 1.70576481562500 4.63541572187500 
 N -1.81102873437500 5.31878081562500 5.04332672187500 
 N -4.23649973437500 0.974899815625000 3.42424672187500 
 N -3.91490673437500 4.65425581562500 3.83983172187500 
 N -4.87334773437500 0.796476815625001 7.26556272187500 
 N -4.78264773437500 5.03826181562500 7.63459372187500 
 S -5.63545273437500 0.515739815625000 5.83565572187500 
 S -5.36371273437500 4.38555481562500 6.17553472187500 
 S -2.68083673437500 1.48613681562500 3.05786172187500 
 S -2.33241473437500 4.98317481562500 3.49813072187500 
 S -3.27000373437500 1.21295881562500 7.16702072187500 
 S -3.12835973437500 5.42278181562500 7.57421172187500 
