16

 C -3.40739695000000 1.43316245312499 5.50996884687500 
 C -2.99856295000000 5.13728945312499 5.83593284687500 
 C -4.62748995000000 1.13624045312499 4.82255284687500 
 C -4.29861095000000 4.93546345312500 5.26916184687500 
 N -2.32963295000000 1.57518545312499 4.74558884687500 
 N -2.06324395000000 5.22012545312499 4.90875284687500 
 N -4.46894195000000 1.19646545312500 3.47904284687500 
 N -4.35812995000000 4.86038345312499 3.97369584687500 
 N -5.10074595000000 1.21833445312499 7.33896084687500 
 N -4.74681295000000 5.16029345312499 7.78261284687500 
 S -5.91114995000000 0.772154453124995 5.98456584687500 
 S -5.60159395000000 5.00973945312500 6.36924784687500 
 S -2.85675195000000 1.58257045312499 3.18395784687500 
 S -2.86917195000000 5.02496945312499 3.38555184687500 
 S -3.52107295000000 1.69679345312499 7.16074284687500 
 S -3.07841895000000 5.35347845312499 7.62120784687500 
