16

 C -3.09785100937500 1.24218234687500 5.67406318750000 
 C -3.04781300937500 4.81291634687500 5.55241518750000 
 C -4.37357800937500 0.853072346875002 5.10970418750000 
 C -4.28556900937500 4.49165234687500 4.94431118750000 
 N -2.12389200937500 1.19702434687500 4.75761518750000 
 N -1.98397900937500 4.84317334687500 4.72536518750000 
 N -4.36580400937500 0.525823346875002 3.84282918750000 
 N -4.21577200937500 4.06943234687500 3.67777618750000 
 N -4.77183300937500 1.27119934687500 7.59817718750000 
 N -4.81640300937500 4.82974034687500 7.45965318750000 
 S -5.67922300937500 0.836707346875002 6.24769418750000 
 S -5.54691300937500 4.37748134687500 6.01891518750000 
 S -2.78798500937500 0.845655346875002 3.28642218750000 
 S -2.63448900937500 4.35717134687500 3.25371218750000 
 S -3.18599800937500 1.65779734687500 7.42960518750000 
 S -3.19025900937500 5.23763834687500 7.25061418750000 
