16

 C -3.24656120625000 0.865636118749999 5.41780260625000 
 C -3.21659420625000 4.94158611875000 5.68280260625000 
 C -4.44259520625000 0.576762118749999 4.68721060625000 
 C -4.49228320625000 4.55481411875000 5.09842660625000 
 N -2.17813920625000 1.29219611875000 4.71089160625000 
 N -2.18772420625000 5.19499311875000 4.83130760625000 
 N -4.30277720625000 0.801223118749999 3.36921960625000 
 N -4.36348920625000 4.39542311875000 3.79576660625000 
 N -5.11865920625000 0.636673118749999 7.25816460625000 
 N -4.96105620625000 4.88254111875000 7.59156060625000 
 S -5.83486020625000 0.272975118749999 5.85045060625000 
 S -5.74215420625000 4.20850311875000 6.28094660625000 
 S -2.72427020625000 1.30434611875000 3.15753860625000 
 S -2.79794620625000 4.75585311875000 3.35702660625000 
 S -3.47071520625000 0.788296118749999 7.16518260625000 
 S -3.32555220625000 5.04172111875000 7.42733260625000 
