16

 C -3.01507574375000 1.40907185625000 5.29854158125000 
 C -3.29957174375000 4.93952985625000 5.50610858125000 
 C -4.22181174375000 0.862268856250000 4.77088258125000 
 C -4.45303774375000 4.39998385625000 4.84886458125000 
 N -2.02473374375000 1.63345085625000 4.42773858125000 
 N -2.33209374375000 5.27083485625000 4.68551458125000 
 N -4.25085274375000 0.804992856250000 3.46659158125000 
 N -4.38576374375000 4.36090185625000 3.51364458125000 
 N -4.75652774375000 1.06065685625000 7.33759858125000 
 N -5.01991774375000 4.53765485625000 7.41686558125000 
 S -5.57955774375000 0.747402856250000 5.94731558125000 
 S -5.75039074375000 4.07374185625000 6.01967558125000 
 S -2.78316574375000 1.33276285625000 2.93096758125000 
 S -2.89875274375000 5.07190985625000 3.13845058125000 
 S -3.22707874375000 1.68323385625000 7.09145858125000 
 S -3.43017274375000 5.02975185625000 7.25008058125000 
