16

 C -3.03075414062500 1.30260687499999 5.25834564062500 
 C -2.89115514062500 5.10151287499999 5.59439264062500 
 C -4.20777714062500 0.719754874999993 4.59819364062500 
 C -4.16402314062500 4.55727487499999 5.14084164062500 
 N -2.07461914062500 1.72291887499999 4.46221064062500 
 N -2.01011814062500 5.30629087499999 4.59003864062500 
 N -4.15976814062500 0.814209874999993 3.27094364062500 
 N -4.22446514062500 4.35281987499999 3.82904964062500 
 N -4.69163114062500 0.624572874999993 7.13263064062500 
 N -4.51378714062500 5.07858887499999 7.64716364062500 
 S -5.46480714062500 0.210884874999993 5.68322964062500 
 S -5.38176414062500 4.51239287499999 6.33859864062500 
 S -2.66641814062500 1.53613187499999 2.96063564062500 
 S -2.71286314062500 4.81072487499999 3.18301964062500 
 S -3.10813314062500 1.23931187499999 7.00630764062500 
 S -2.87933114062500 5.39401387499999 7.35650364062500 
