16

 C -2.89336772812500 1.38090361562500 5.79714255312500 
 C -3.17498872812500 4.88316361562500 5.67461455312500 
 C -4.15507472812500 1.20413061562500 5.17080155312500 
 C -4.46181172812500 4.76565961562500 5.00767355312500 
 N -1.86873472812500 1.43225561562500 4.95414555312500 
 N -2.17970372812500 4.86469761562500 4.80669555312500 
 N -4.09493472812500 1.19858361562500 3.83634455312500 
 N -4.38733972812500 4.73285461562500 3.68912255312500 
 N -4.61792372812500 1.46189661562500 7.68773455312500 
 N -5.06054772812500 4.74729361562500 7.47989855312500 
 S -5.51911272812500 1.24696361562500 6.25037655312500 
 S -5.85299772812500 4.53020561562500 6.01994155312500 
 S -2.44874972812500 1.30211161562500 3.44193355312500 
 S -2.81365472812500 4.83455261562500 3.22814555312500 
 S -2.96117072812500 1.58365161562500 7.48340955312500 
 S -3.41681272812500 5.06328161562500 7.43501955312500 
