16

 C -2.97094458750000 1.79718077187500 5.68098827812500 
 C -3.13456658750000 5.40543877187500 5.60650927812500 
 C -4.06238058750000 1.02528077187500 5.11561127812500 
 C -4.33902158750000 4.85808777187500 5.02503727812500 
 N -1.98819858750000 1.96555777187500 4.78742827812500 
 N -2.15169958750000 5.63698577187500 4.76533527812500 
 N -3.91864058750000 0.654044771875003 3.86458127812500 
 N -4.21338458750000 4.53063177187500 3.75118927812500 
 N -4.75056258750000 1.38765177187500 7.52342027812500 
 N -4.84384958750000 5.31277777187500 7.48951427812500 
 S -5.42032358750000 0.779732771875003 6.08760027812500 
 S -5.66925258750000 4.97107177187500 6.12608827812500 
 S -2.37676658750000 1.08952477187500 3.38665827812500 
 S -2.58934558750000 4.94755977187500 3.33714327812500 
 S -3.27381658750000 2.10752077187500 7.33659627812500 
 S -3.24361358750000 5.63037677187500 7.35187827812500 
