16

 C -2.84333289687500 1.65934197500000 5.73347639375000 
 C -3.06439889687500 5.31687797500000 5.67925639375000 
 C -4.17782189687500 1.54761197500000 5.07195639375000 
 C -4.34739189687500 4.92555597500000 5.15973039375000 
 N -1.82859589687500 1.72964197500000 4.87341339375000 
 N -2.07795589687500 5.32710197500000 4.78265439375000 
 N -4.17125789687500 1.54514397500000 3.75206039375000 
 N -4.40988889687500 4.75193897500000 3.85455139375000 
 N -4.65541289687500 1.66705797500000 7.64211939375000 
 N -4.85547489687500 5.26653797500000 7.61355039375000 
 S -5.48363189687500 1.43141797500000 6.17251239375000 
 S -5.63122189687500 4.78504197500000 6.25444939375000 
 S -2.61023589687500 1.82379497500000 3.37684839375000 
 S -2.86007989687500 5.03475097500000 3.31444639375000 
 S -2.96927889687500 1.83563797500000 7.50332039375000 
 S -3.23729489687500 5.58568397500000 7.40831139375000 
