16

 C -3.30150324687500 1.06827256250000 5.69213950937500 
 C -2.88466524687500 5.00545556250000 5.52036650937500 
 C -4.49255324687500 0.576602562500000 4.96247750937500 
 C -4.03701824687500 4.46692656250000 4.88876650937500 
 N -2.28291624687500 1.44988456250000 4.88107150937500 
 N -1.87882624687500 5.30308056250000 4.71189450937500 
 N -4.27532424687500 0.424592562500000 3.62802150937500 
 N -3.94042624687500 4.33206956250000 3.57082550937500 
 N -5.13273024687500 0.709896562500000 7.48529050937500 
 N -4.71238324687500 4.66685356250000 7.41007150937500 
 S -5.85016024687500 0.355418562500000 5.97641450937500 
 S -5.39730524687500 4.36832156250000 5.91616850937500 
 S -2.65415424687500 0.853650562500000 3.35257950937500 
 S -2.46004124687500 4.91069156250000 3.13203350937500 
 S -3.48882224687500 1.12970456250000 7.46617350937500 
 S -3.10888624687500 5.22878456250000 7.26866150937500 
