16

 C -3.14638238437500 0.867666450000002 5.58621842812500 
 C -3.06898338437500 5.05355245000000 5.37447242812500 
 C -4.36458038437500 0.772342450000002 4.87455142812500 
 C -4.27882838437500 4.57517445000000 4.70805142812500 
 N -1.98692438437500 0.914482450000002 4.88060542812500 
 N -2.02153338437500 5.08777845000000 4.56801342812500 
 N -4.21162938437500 0.737318450000002 3.52712242812500 
 N -4.14089638437500 4.39606145000000 3.41163242812500 
 N -5.08407138437500 0.584428450000003 7.43269942812500 
 N -4.96017038437500 4.69939345000000 7.24236542812500 
 S -5.76051538437500 0.382031450000002 5.92539742812500 
 S -5.59682838437500 4.14605145000000 5.75637742812500 
 S -2.55418238437500 0.935540450000002 3.30089942812500 
 S -2.55464938437500 4.65606945000000 3.03646242812500 
 S -3.48327038437500 0.927851450000002 7.30594942812500 
 S -3.36463438437500 5.33814545000000 7.08469342812500 
