16

 C -3.19050931250001 1.53831005624999 5.38561442500000 
 C -3.14577831250000 5.28710805624999 6.01494242500000 
 C -4.33987231250001 1.00040405624999 4.71934242500000 
 C -4.38546131250000 5.02812005624999 5.32346442500000 
 N -2.12530531250000 1.82324605624999 4.65022342500000 
 N -2.08466831250000 5.36554605624999 5.21612342500000 
 N -4.09764531250000 0.771038056249992 3.42443042500000 
 N -4.32222931250000 4.86607305624999 3.99480542500000 
 N -4.89043431250000 1.03510705624999 7.25930242500000 
 N -4.98261431250001 5.15645405624999 7.83098542500000 
 S -5.63486331250000 0.656977056249993 5.80687942500000 
 S -5.69888931250000 4.90105105624999 6.39162142500000 
 S -2.59884631250000 1.45446505624999 3.04808442500000 
 S -2.74647131250001 5.05074105624999 3.64748942500000 
 S -3.23311831250000 1.45916005624999 7.11862342500000 
 S -3.37417331250000 5.41779705624999 7.75867242500000 
