16

 C -3.01692919687500 1.21284645312500 5.51867505937500 
 C -3.11722619687500 5.23882345312500 5.25657705937500 
 C -4.24221619687500 0.891181453125003 4.77623805937500 
 C -4.37519819687500 4.83846945312500 4.59978505937500 
 N -1.92669319687500 1.37723645312500 4.83451405937500 
 N -2.19190119687500 5.55795945312500 4.36514905937500 
 N -4.01620919687500 0.700498453125002 3.47519605937500 
 N -4.26199919687500 4.59074245312500 3.29248005937500 
 N -4.89291819687500 1.16500245312500 7.32353305937500 
 N -4.78108619687500 4.91304845312500 7.18256005937500 
 S -5.56657119687500 0.895673453125003 5.82243305937500 
 S -5.63466019687500 4.67026245312500 5.79965005937500 
 S -2.40119019687500 0.957179453125002 3.24721505937500 
 S -2.67844019687500 5.11958145312500 2.85714005937500 
 S -3.26145619687500 1.57646945312500 7.25393105937500 
 S -3.23733419687500 5.43593245312500 7.02904705937500 
