16

 C -2.98662400625000 1.28579339687499 5.69263510312500 
 C -2.87499300625000 4.81308439687499 5.48273910312500 
 C -4.25718800625000 1.11993439687499 5.03315410312500 
 C -4.07847800625000 4.56749039687499 4.75372710312500 
 N -1.95092900625000 1.08052439687499 4.88659110312500 
 N -1.80839400625000 4.73717239687499 4.68922710312500 
 N -4.15067900625000 0.902999396874991 3.67740610312500 
 N -4.02070100625000 4.31353639687499 3.41691210312500 
 N -4.58143400625000 1.37882739687499 7.69960610312500 
 N -4.83220700625000 4.73241739687499 7.15541310312500 
 S -5.49704600625000 1.49252439687499 6.31174310312500 
 S -5.51074500625000 4.44312439687499 5.73424610312500 
 S -2.53187300625000 0.738960396874990 3.41675610312500 
 S -2.43020000625000 4.38575939687499 3.15804610312500 
 S -2.90904200625000 1.61023139687499 7.37291110312500 
 S -3.20475400625000 5.06766339687499 7.22044410312500 
