16

 C -2.99588551875000 1.80197417500000 5.76165128750000 
 C -3.16485251875000 5.37291517500000 5.65382528750000 
 C -4.24136551875000 1.53693717500000 5.07681228750000 
 C -4.39283251875000 4.94239117500000 5.06987628750000 
 N -1.96575451875000 1.98621217500000 4.94190628750000 
 N -2.13608051875000 5.51647317500000 4.82272228750000 
 N -4.12502451875000 1.38973817500000 3.76348728750000 
 N -4.32804951875000 4.78195817500000 3.75739128750000 
 N -4.75991251875000 1.45541417500000 7.73214228750000 
 N -4.79136451875000 5.16513117500000 7.63385528750000 
 S -5.63124851875000 1.50668417500000 6.30154928750000 
 S -5.70995251875000 4.85472617500000 6.30094728750000 
 S -2.57619351875000 1.79954917500000 3.39588528750000 
 S -2.73120151875000 5.11018917500000 3.30926328750000 
 S -3.08067951875000 1.74040417500000 7.52184128750000 
 S -3.17819351875000 5.40496617500000 7.32701228750000 
