16

 C -3.07665096562500 1.06582712500000 5.44392902500000 
 C -3.15490796562500 4.83738812500000 5.47223002500000 
 C -4.27498896562500 0.692923125000003 4.75130502500000 
 C -4.45868996562500 4.66383912500000 4.86574502500000 
 N -2.01496196562500 1.26533312500000 4.65188802500000 
 N -2.07911896562500 4.85151012500000 4.65530602500000 
 N -4.18570796562500 0.563201125000003 3.44218502500000 
 N -4.36898296562500 4.36720012500000 3.52772702500000 
 N -4.88795796562500 0.616021125000003 7.27432702500000 
 N -4.84082196562500 5.06352912500000 7.42012702500000 
 S -5.60240996562500 0.314699125000002 5.79464502500000 
 S -5.71940696562500 4.98939712500000 6.03015302500000 
 S -2.58270996562500 0.944134125000002 3.08133102500000 
 S -2.72798996562500 4.51568612500000 3.19939102500000 
 S -3.29489396562500 1.10532912500000 7.20563002500000 
 S -3.16744296562500 4.91639712500000 7.14983002500000 
