16

 C -2.95329354375000 1.48385982500000 5.63826994375000 
 C -3.02779054375000 5.29762982500000 5.36203094375000 
 C -4.23563454375000 1.00493382500000 5.09815594375000 
 C -4.22695354375000 4.85735082500000 4.76263094375000 
 N -2.09449354375000 1.68896282500000 4.64519994375000 
 N -1.93971554375000 5.54466082500000 4.56474494375000 
 N -4.34753654375000 0.831503824999998 3.79026794375000 
 N -4.12659054375000 4.74220482500000 3.41335294375000 
 N -4.68987754375000 1.24073082500000 7.60874094375000 
 N -4.54178654375000 4.83769282500000 7.41619894375000 
 S -5.53718454375000 0.870580824999998 6.26107094375000 
 S -5.44899454375000 4.63402082500000 5.99648294375000 
 S -2.84803154375000 1.17730782500000 3.21776294375000 
 S -2.53328254375000 5.22723082500000 3.11010994375000 
 S -3.06295954375000 1.62425482500000 7.44866694375000 
 S -3.02309054375000 5.43816982500000 7.06304494375000 
