16

 C -3.35747436250000 1.35448025625000 5.55515526250000 
 C -2.88458836250000 5.26314425625000 5.45847126250000 
 C -4.43466636250000 0.627429256250003 4.94453026250000 
 C -4.14665136250000 4.91683425625000 4.83288926250000 
 N -2.39023536250000 1.73398225625000 4.72270926250000 
 N -1.85122636250000 5.34137025625000 4.57400026250000 
 N -4.28331136250000 0.394167256250003 3.62875526250000 
 N -4.14166036250000 4.78228225625000 3.46226326250000 
 N -5.15850036250000 1.22095125625000 7.43040426250000 
 N -4.74381636250000 5.07592525625000 7.31043426250000 
 S -5.75179536250000 0.290726256250003 6.14877726250000 
 S -5.46278336250000 4.74240525625000 5.91269926250000 
 S -2.77327336250000 1.01298325625000 3.27098926250000 
 S -2.56275936250000 5.00057325625000 3.09399826250000 
 S -3.58885236250000 1.86412325625000 7.16190426250000 
 S -3.15693836250000 5.39838625625000 7.22592026250000 
