16

 C -3.22098664375000 1.35404983750000 5.67086572187500 
 C -3.51109864375000 5.34104083750000 5.38861072187500 
 C -4.35161764375000 0.695398837500004 5.03536172187500 
 C -4.51878964375000 4.48270983750000 4.77244172187500 
 N -2.20869664375000 1.62025983750000 4.84171072187500 
 N -2.44858564375000 5.52537883750000 4.64718572187500 
 N -4.18025064375000 0.501612837500003 3.75050472187500 
 N -4.29541464375000 4.21367783750000 3.50721972187500 
 N -4.82718764375000 0.797819837500004 7.56786172187500 
 N -5.33530464375000 4.97730083750000 7.24271672187500 
 S -5.58551264375000 0.352078837500003 6.13010672187500 
 S -5.82321564375000 4.13876083750000 5.89501872187500 
 S -2.69131864375000 1.15522683750000 3.31679372187500 
 S -2.82898864375000 4.92256883750000 3.10238372187500 
 S -3.37717164375000 1.64278283750000 7.40202072187500 
 S -3.84399364375000 5.72048383750000 7.11234572187500 
