16

 C -3.21756911875000 1.55231293125000 5.46879825625000 
 C -2.98971711875000 5.10591593125000 5.71342225625000 
 C -4.50107211875000 1.15427993125000 4.95952225625000 
 C -4.23084311875000 4.76436793125000 5.01679425625000 
 N -2.34029111875000 1.79219393125000 4.52384125625000 
 N -2.04012311875000 5.22597693125000 4.84535525625000 
 N -4.60542511875000 0.996478931250001 3.63940425625000 
 N -4.21820311875000 4.54632593125000 3.73196325625000 
 N -4.79847211875000 1.17103593125000 7.50117325625000 
 N -4.82639511875000 5.12145493125000 7.47346325625000 
 S -5.73577711875000 0.989946931250001 6.09431025625000 
 S -5.57134911875000 4.47343993125000 6.11876325625000 
 S -3.07398611875000 1.41010593125000 3.11275125625000 
 S -2.63894511875000 4.96502693125000 3.31705625625000 
 S -3.24635111875000 1.71544993125000 7.24540625625000 
 S -3.19575611875000 5.46077893125000 7.42688525625000 
