16

 C -3.37635711875000 1.25923443437500 5.37410830000000 
 C -3.17461011875000 5.02505043437500 5.28734930000000 
 C -4.56285511875000 0.690709434375004 4.70021030000000 
 C -4.41963311875000 4.64113243437500 4.71516230000000 
 N -2.29396911875000 1.34551543437500 4.62282230000000 
 N -2.06808011875000 5.04083443437500 4.51828430000000 
 N -4.32322111875000 0.372891434375004 3.42124430000000 
 N -4.28056511875000 4.28847243437500 3.40249230000000 
 N -5.20462811875000 1.06151043437500 7.15378330000000 
 N -4.95893411875000 4.92204343437500 7.21076730000000 
 S -5.92080611875000 0.521171434375004 5.77092630000000 
 S -5.78312811875000 4.80134343437500 5.78406130000000 
 S -2.82098011875000 0.898800434375005 3.08064230000000 
 S -2.68896611875000 4.57842443437500 3.05110030000000 
 S -3.67353411875000 1.45982243437500 7.08615930000000 
 S -3.32338711875000 5.52344643437500 6.93521230000000 
