16

 C -3.40899841875000 1.42540085000000 5.52030461875000 
 C -2.98187441875000 5.13277685000000 5.83197061875000 
 C -4.61922541875000 1.13179885000000 4.82353861875000 
 C -4.30416541875000 4.93577885000000 5.25599161875000 
 N -2.33270741875000 1.58212785000000 4.76019561875000 
 N -2.04814841875000 5.22126185000000 4.89865761875000 
 N -4.48754241875000 1.20847085000000 3.48719761875000 
 N -4.35789841875000 4.86275185000000 3.96563961875000 
 N -5.11245641875000 1.23637585000000 7.34115861875000 
 N -4.74637541875000 5.17192785000000 7.75929961875000 
 S -5.91449641875000 0.780437849999997 5.98587961875000 
 S -5.60653441875000 5.00612385000000 6.37195561875000 
 S -2.86400941875000 1.58136585000000 3.18443361875000 
 S -2.87013841875000 5.02128385000000 3.37663961875000 
 S -3.52709441875000 1.70481985000000 7.15771061875000 
 S -3.06660041875000 5.34973785000000 7.61752861875000 
