16

 C -2.87021470312500 1.79420167500000 5.65751562500000 
 C -3.17370670312500 5.26591667500000 5.67480162500000 
 C -4.17754070312500 1.60473567500000 5.06680662500000 
 C -4.43591270312500 4.89297167500000 5.10773062500000 
 N -1.87590970312500 1.78129567500000 4.79465562500000 
 N -2.15826170312500 5.32599667500000 4.84889362500000 
 N -4.08760770312500 1.66227767500000 3.74328162500000 
 N -4.36265770312500 4.78575667500000 3.78512462500000 
 N -4.57340270312500 1.54851967500000 7.63898562500000 
 N -4.84827170312500 5.23243167500000 7.65171262500000 
 S -5.44724770312500 1.43955067500000 6.27108362500000 
 S -5.69053070312500 4.72603367500000 6.29645462500000 
 S -2.50477570312500 1.66698067500000 3.25215062500000 
 S -2.79748270312500 4.94980367500000 3.31857162500000 
 S -2.97774170312500 1.89200367500000 7.39496662500000 
 S -3.19826770312500 5.60281667500000 7.39757262500000 
