16

 C -3.10319264375000 1.70976573125000 5.52801796562500 
 C -3.10918964375000 5.03489573125000 5.51191296562500 
 C -4.44697664375000 1.53344473125000 4.97476696562500 
 C -4.35487864375000 4.66497073125000 4.87826896562500 
 N -2.10461164375000 1.73733573125000 4.61712196562500 
 N -2.10095264375000 5.37254173125000 4.69497296562500 
 N -4.48954364375000 1.56532473125000 3.64533996562500 
 N -4.24163264375000 4.75193573125000 3.54290296562500 
 N -4.74219964375000 1.58603773125000 7.50058796562500 
 N -4.79856864375000 4.47284973125000 7.46845696562500 
 S -5.71352664375000 1.49969973125000 6.16783296562500 
 S -5.68232364375000 4.34013173125000 6.06144296562500 
 S -3.00313964375000 1.60526173125000 3.18179296562500 
 S -2.70180564375000 5.13782573125000 3.17818696562500 
 S -3.10675364375000 1.62510973125000 7.29856096562500 
 S -3.14813864375000 4.87582973125000 7.22812796562500 
