16

 C -3.09245212187500 1.39464311250001 5.32601388125000 
 C -3.09286012187500 5.28397811250001 6.02800288125000 
 C -4.24550012187500 0.881645112500006 4.67708088125000 
 C -4.36357512187500 4.95692511250001 5.38182988125000 
 N -2.05857612187500 1.77022011250001 4.56260488125000 
 N -2.08449312187500 5.33036911250001 5.15976788125000 
 N -4.06957712187500 0.832035112500007 3.33122988125000 
 N -4.28146312187500 4.83081011250001 4.05986588125000 
 N -4.79221912187500 1.12509811250001 7.21974588125000 
 N -5.07285612187500 5.07866711250001 7.78892288125000 
 S -5.60249612187500 0.666305112500007 5.84741588125000 
 S -5.80313912187500 4.86149711250001 6.30239088125000 
 S -2.50112312187500 1.40357711250001 3.06291688125000 
 S -2.68095912187500 5.11472011250001 3.64733088125000 
 S -3.24518112187500 1.58327311250001 7.05973188125000 
 S -3.42236412187500 5.50593211250001 7.76679988125000 
