16

 C -3.14780026562500 1.34772966875000 5.50177820937500 
 C -3.11532926562500 4.92282266875000 5.68384620937500 
 C -4.41711926562500 0.969615668749998 4.97312920937500 
 C -4.33945926562500 4.44586666875000 5.08073720937500 
 N -2.18607726562500 1.56397866875000 4.62999620937500 
 N -2.18661726562500 5.25642266875000 4.80793420937500 
 N -4.41315126562500 0.729158668749998 3.65630820937500 
 N -4.18753126562500 4.16726366875000 3.79466620937500 
 N -4.94324326562500 1.38595666875000 7.42713720937500 
 N -4.92643626562500 4.73580366875000 7.59030920937500 
 S -5.74975626562500 0.923897668749998 6.12798120937500 
 S -5.69480826562500 4.21510866875000 6.18474520937500 
 S -2.89730426562500 1.06220566875000 3.17457920937500 
 S -2.70008826562500 4.70114066875000 3.30333920937500 
 S -3.32432126562500 1.72696666875000 7.18271620937500 
 S -3.36127026562500 5.30993566875000 7.42743420937500 
