16

 C -3.34862730625000 1.18310616875000 5.47926300312500 
 C -3.25122030625000 5.34870816875000 5.76949300312500 
 C -4.52523730625000 0.692822168750001 4.85223300312500 
 C -4.35570230625000 4.76531016875000 5.11957000312500 
 N -2.35045830625000 1.55087416875000 4.66198500312500 
 N -2.21259830625000 5.74863216875000 5.00174500312500 
 N -4.41235830625000 0.699808168750002 3.55204500312500 
 N -4.19368030625000 4.76006616875000 3.77584000312500 
 N -5.07608530625000 0.816989168750001 7.37599800312500 
 N -4.84330330625000 4.60991016875000 7.63989300312500 
 S -5.91387530625000 0.412789168750001 5.94174000312500 
 S -5.64048230625000 4.38176316875000 6.25294500312500 
 S -2.84576830625000 1.17513616875000 3.14030300312500 
 S -2.76125330625000 5.45127016875000 3.43717200312500 
 S -3.46910530625000 1.21091616875000 7.18957700312500 
 S -3.35448630625000 5.27923916875000 7.53573400312500 
