16

 C -3.11761086875000 1.24610796562500 5.34199187187500 
 C -2.91784486875000 5.06288896562500 5.74220287187500 
 C -4.29344386875000 0.904183965624998 4.67437087187500 
 C -4.10060986875000 4.55725896562500 5.09209487187500 
 N -2.12024886875000 1.55222996562500 4.54004287187500 
 N -1.88858786875000 5.27862096562500 4.91314287187500 
 N -4.21923586875000 0.958736965624999 3.36601087187500 
 N -3.95819086875000 4.46174396562500 3.76343487187500 
 N -4.89811286875000 0.779890965624999 7.16277787187500 
 N -4.60068186875000 4.89172596562500 7.67469087187500 
 S -5.57845686875000 0.323410965624999 5.72434687187500 
 S -5.37325386875000 4.35522696562500 6.26541587187500 
 S -2.66542886875000 1.44095396562500 2.98317387187500 
 S -2.37420086875000 4.87372296562500 3.41204687187500 
 S -3.31249486875000 1.22612796562500 7.06904487187500 
 S -2.98706086875000 5.35084696562500 7.48096487187500 
