16

 C -3.24009774687500 1.22699447812500 5.30933240000000 
 C -2.88104974687500 5.12925447812500 5.43679040000000 
 C -4.49828274687500 0.899596478125001 4.67369540000000 
 C -4.07444074687500 4.60867247812500 4.76432140000000 
 N -2.22319274687500 1.21448947812500 4.45704040000000 
 N -1.89876774687500 5.37776547812500 4.57061540000000 
 N -4.40788774687500 0.545262478125001 3.39713640000000 
 N -3.97851174687500 4.30199647812500 3.46956140000000 
 N -5.04473674687500 1.65001147812500 7.01383240000000 
 N -4.76758274687500 5.07910647812500 7.17210140000000 
 S -5.82244574687500 0.953418478125001 5.69962440000000 
 S -5.41028074687500 4.35549847812500 5.84114240000000 
 S -2.81358474687500 0.779847478125001 2.96339740000000 
 S -2.44712274687500 4.85284647812500 3.11010340000000 
 S -3.35972074687500 1.60359347812500 7.00388540000000 
 S -3.19330474687500 5.56155247812500 7.04844040000000 
