16

 C -3.24958156875000 1.48221370625000 5.45428398125000 
 C -2.98595556875000 5.01355070625000 5.48498298125000 
 C -4.49434856875000 1.05720270625000 4.85702898125000 
 C -4.27463156875000 4.75864070625000 4.87117698125000 
 N -2.31333956875000 1.79615470625000 4.56508898125000 
 N -1.93979156875000 5.11951470625000 4.67593498125000 
 N -4.44365256875000 0.954515706250000 3.56467698125000 
 N -4.12323956875000 4.29576770625000 3.63484098125000 
 N -4.84963856875000 1.43603470625000 7.50651898125000 
 N -4.67250556875000 5.07837770625000 7.37310598125000 
 S -5.67374556875000 0.880546706250000 6.12262498125000 
 S -5.58055756875000 4.82329470625000 6.01992398125000 
 S -2.83203056875000 1.34009270625000 3.09142498125000 
 S -2.53627756875000 4.54099570625000 3.20358598125000 
 S -3.25018356875000 1.77922670625000 7.22195998125000 
 S -3.04437556875000 5.31963670625000 7.23931698125000 
