16

 C -3.35341352812500 1.24664665312500 5.42535168125000 
 C -3.17910452812500 5.11331765312500 5.01422568125000 
 C -4.43659652812500 0.512475653125001 4.72777668125000 
 C -4.26250352812500 4.44897665312500 4.34747868125000 
 N -2.37151152812500 1.70367665312500 4.62991968125000 
 N -2.21354452812500 5.55330865312500 4.18488568125000 
 N -4.23262252812500 0.324987653125000 3.39323968125000 
 N -4.13682852812500 4.37408365312500 3.01965368125000 
 N -5.13126852812500 0.840494653125000 7.26403268125000 
 N -4.76889452812500 4.23292165312500 6.88620568125000 
 S -5.75211252812500 0.186248653125000 5.83993668125000 
 S -5.52382452812500 3.85518865312500 5.40221768125000 
 S -2.79595852812500 1.17655865312500 3.13078268125000 
 S -2.67011552812500 5.11088665312500 2.68369768125000 
 S -3.59902552812500 1.48518165312500 7.13890868125000 
 S -3.43980852812500 5.23293565312500 6.79649968125000 
