16

 C -3.20176928125000 1.43500596250001 5.58546033125000 
 C -3.28714928125000 5.29779296250001 5.44536733125000 
 C -4.32302928125000 0.898342962500006 4.83772933125000 
 C -4.34125728125000 4.68973196250001 4.71863233125000 
 N -2.18364028125000 1.65691696250001 4.71294333125000 
 N -2.18980828125000 5.54686896250001 4.76552433125000 
 N -4.22219728125000 0.628555962500007 3.54097133125000 
 N -4.04928628125000 4.40922396250001 3.41823233125000 
 N -5.06651328125000 0.824683962500007 7.24805833125000 
 N -5.16205828125000 5.01933596250001 7.17958233125000 
 S -5.67411828125000 0.434690962500007 5.77938133125000 
 S -5.68090028125000 4.18446696250001 5.85729233125000 
 S -2.70859128125000 1.20081296250001 3.14148133125000 
 S -2.46840528125000 4.95464296250001 3.22070333125000 
 S -3.50834528125000 1.43419896250001 7.34175533125000 
 S -3.57615728125000 5.59835496250001 7.09257933125000 
