16

 C -3.30006877812500 1.34580833437500 5.51237803437500 
 C -3.20704377812500 5.02912633437500 5.47710403437500 
 C -4.54603377812500 0.993762334375002 4.94664403437500 
 C -4.44275877812500 4.76690333437500 4.80054503437500 
 N -2.29191677812500 1.47902833437500 4.69003703437500 
 N -2.22732277812500 5.25923033437500 4.62978403437500 
 N -4.49492477812500 0.895308334375001 3.64116303437500 
 N -4.34266777812500 4.52501733437500 3.48718803437500 
 N -4.94991477812500 0.999022334375002 7.51332703437500 
 N -4.92728777812500 4.69892633437500 7.32504203437500 
 S -5.83678077812500 0.807578334375001 6.12847503437500 
 S -5.76516177812500 4.49114233437500 5.90365103437500 
 S -2.89595477812500 1.12334433437500 3.19649403437500 
 S -2.80174477812500 4.96443933437500 3.10922703437500 
 S -3.37302877812500 1.45446633437500 7.22048303437500 
 S -3.27241777812500 5.15795833437500 7.18454603437500 
