16

 C -3.05918955625000 1.21400385000000 5.67484276562500 
 C -2.92637955625000 4.83230585000000 5.47556576562500 
 C -4.34581555625000 0.893310850000000 5.04754076562500 
 C -4.20071655625000 4.40946585000000 4.87895276562500 
 N -2.07990555625000 1.33982985000000 4.80734676562500 
 N -1.93106655625000 4.94380185000000 4.61128576562500 
 N -4.27640255625000 0.730764850000000 3.73661976562500 
 N -4.08216655625000 3.93119885000000 3.65430676562500 
 N -4.75709255625000 1.26433085000000 7.57430876562500 
 N -4.71013455625000 4.95229985000000 7.38967776562500 
 S -5.60810255625000 0.839575849999999 6.22160276562500 
 S -5.54886455625000 4.32163985000000 6.09336076562500 
 S -2.62239955625000 0.907636849999999 3.32899076562500 
 S -2.51994355625000 4.30239785000000 3.15986976562500 
 S -3.15243655625000 1.56640385000000 7.38059576562500 
 S -3.13147055625000 5.31818485000000 7.09189476562500 
