16

 C -3.16264496250000 1.26405795625000 5.39312042500000 
 C -3.19075296250000 5.36780195625000 5.61567242500000 
 C -4.32382996250000 0.603755956250000 4.86856142500000 
 C -4.35232096250000 4.69644495625000 4.98672242500000 
 N -2.08735096250000 1.20722995625000 4.61680142500000 
 N -2.19165096250000 5.61229995625000 4.81477642500000 
 N -4.15023196250000 9.241895624999952E-002 3.68179642500000 
 N -4.12850296250000 4.35832995625000 3.69221142500000 
 N -5.03951796250000 1.30456895625000 7.17627742500000 
 N -4.93615096250000 5.16139495625000 7.47882342500000 
 S -5.70945696250000 0.553177956249999 5.83722342500000 
 S -5.70877096250000 4.73042495625000 6.10937542500000 
 S -2.61070696250000 0.412355956249999 3.19754242500000 
 S -2.61614296250000 4.91648095625000 3.33178942500000 
 S -3.53709496250000 1.94269795625000 7.01267342500000 
 S -3.36712396250000 5.68472895625000 7.31288542500000 
