16

 C -3.01477994062500 1.60508275312500 5.50758917187500 
 C -3.07333394062500 5.31130475312500 5.51366517187500 
 C -4.22562894062500 1.19030875312500 4.80170517187500 
 C -4.31238394062500 5.05387475312500 4.80831017187500 
 N -1.96055994062500 1.78071575312500 4.71058917187500 
 N -2.01263294062500 5.31743275312500 4.70985617187500 
 N -4.06743094062500 0.921228753124999 3.48367017187500 
 N -4.16616494062500 4.82094275312500 3.49620817187500 
 N -4.84927294062500 1.40645175312500 7.39578117187500 
 N -4.75395494062500 5.12334975312500 7.34831517187500 
 S -5.56079094062500 0.968252753124998 5.97839317187500 
 S -5.63849494062500 4.85145775312500 5.98401217187500 
 S -2.53756294062500 1.36898375312500 3.14555117187500 
 S -2.57616494062500 5.09408875312500 3.18476317187500 
 S -3.19438694062500 1.80775075312500 7.26472417187500 
 S -3.14723994062500 5.53120675312500 7.21481217187500 
