16

 C -3.29241690937500 1.40846817500000 5.48485466875000 
 C -3.04557190937500 5.34262617500000 5.77464266875000 
 C -4.42768690937500 0.863066175000000 4.74230466875000 
 C -4.28369590937500 5.08554417500000 5.04694766875000 
 N -2.23987390937500 1.62681417500000 4.72453966875000 
 N -1.99351090937500 5.48707517500000 4.94121166875000 
 N -4.23463190937500 0.804215175000000 3.42961766875000 
 N -4.16635690937500 4.96895617500000 3.73038466875000 
 N -5.14981090937500 1.07756117500000 7.21213766875000 
 N -5.05666090937500 5.18861117500000 7.51394966875000 
 S -5.68776690937500 0.429775175000000 5.75293566875000 
 S -5.77859490937500 5.05508217500000 6.01795566875000 
 S -2.70885490937500 1.40241217500000 3.16576466875000 
 S -2.55016490937500 5.24147017500000 3.38041066875000 
 S -3.52898990937500 1.47622617500000 7.19580366875000 
 S -3.38152490937500 5.57358917500000 7.48679166875000 
