16

 C -3.37387601875000 1.54524674687500 5.45468392187500 
 C -3.08922901875000 5.34925374687500 5.65502392187500 
 C -4.52617101875000 0.927315746875003 4.78971392187500 
 C -4.36848601875000 4.95393274687500 5.07799292187500 
 N -2.30448001875000 1.83413774687500 4.67090492187500 
 N -2.07684301875000 5.35887674687500 4.78782792187500 
 N -4.32319701875000 0.942267746875003 3.43856092187500 
 N -4.35336801875000 4.89359974687500 3.73940992187500 
 N -5.36307501875000 1.50800174687500 7.06936092187500 
 N -4.84880101875000 5.07864374687500 7.56032592187500 
 S -5.96411701875000 0.723774746875002 5.72698392187500 
 S -5.72148901875000 4.65670074687500 6.16524292187500 
 S -2.76023401875000 1.49458774687500 3.14326292187500 
 S -2.77475501875000 5.12527174687500 3.26381692187500 
 S -3.79849401875000 2.04246674687500 7.04649192187500 
 S -3.24307901875000 5.40083074687500 7.37784292187500 
