16

 C -2.74672827812500 1.22749579062500 5.42644956562500 
 C -2.99637527812500 5.17050879062500 5.66350356562500 
 C -4.05146927812500 0.932035790625003 4.85857756562500 
 C -4.13762727812500 4.56078479062500 5.02379156562500 
 N -1.78518627812500 1.43237779062500 4.53795956562500 
 N -1.95556027812500 5.38413979062500 4.85981756562500 
 N -4.08652027812500 0.999149790625003 3.54049256562500 
 N -4.06918527812500 4.49126479062500 3.69733156562500 
 N -4.58566427812500 1.28894279062500 7.37857256562500 
 N -4.86187927812500 4.91438979062500 7.45311056562500 
 S -5.39930127812500 0.981991790625003 5.97393456562500 
 S -5.46859927812500 4.26586379062500 6.02091156562500 
 S -2.50996827812500 1.25128679062500 2.99273556562500 
 S -2.49274027812500 4.98527979062500 3.33354756562500 
 S -2.91169827812500 1.58801279062500 7.15958256562500 
 S -3.28594427812500 5.40637879062500 7.43093256562500 
