16

 C -3.14829318437500 1.34341412187500 5.50584022812500 
 C -3.10424518437500 4.91999212187500 5.69310422812500 
 C -4.40349618437500 0.934896121874998 4.98243522812500 
 C -4.34427918437500 4.44943712187500 5.10319122812500 
 N -2.20522518437500 1.54735912187500 4.60319922812500 
 N -2.14295318437500 5.25154412187500 4.78356822812500 
 N -4.43274118437500 0.696147121874998 3.66761122812500 
 N -4.18480718437500 4.15317012187500 3.81663622812500 
 N -4.92365118437500 1.37045712187500 7.44725422812500 
 N -4.95298918437500 4.73778612187500 7.60995722812500 
 S -5.73718718437500 0.922757121874998 6.14257322812500 
 S -5.71367518437500 4.21349812187500 6.18160122812500 
 S -2.88765018437500 1.01445112187500 3.18498622812500 
 S -2.71186918437500 4.69701312187500 3.29724122812500 
 S -3.33910018437500 1.72970412187500 7.20775522812500 
 S -3.35347218437500 5.30054012187500 7.43004022812500 
