16

 C -3.36336680000000 1.46870337187500 5.49840253125000 
 C -3.28395580000000 4.98543537187500 5.15437653125000 
 C -4.57876480000000 0.943732371874999 4.92656853125000 
 C -4.41641180000000 4.29472837187500 4.56777153125000 
 N -2.36499580000000 1.58085237187500 4.63859253125000 
 N -2.30651580000000 5.29437637187500 4.32356653125000 
 N -4.49407280000000 0.747849371875000 3.61788653125000 
 N -4.22602280000000 3.97516237187500 3.28994453125000 
 N -5.04961980000000 1.43194037187500 7.51525953125000 
 N -5.04040980000000 4.81207237187500 7.00499753125000 
 S -5.82532880000000 0.871931371875000 6.15629253125000 
 S -5.65360080000000 3.98641137187500 5.74726453125000 
 S -2.87612080000000 1.06095737187500 3.15436353125000 
 S -2.77499580000000 4.68581437187500 2.83335453125000 
 S -3.41035880000000 1.70833137187500 7.22715553125000 
 S -3.55614880000000 5.52713937187500 6.82846153125000 
