16

 C -3.78719407187500 1.15611378750000 5.67233196562500 
 C -3.10816607187500 5.00380178750000 5.30385296562500 
 C -4.87776007187500 0.527292787500001 4.92763496562500 
 C -4.32481007187500 4.41901078750000 4.81008596562500 
 N -2.73391007187500 1.46397978750000 4.90274796562500 
 N -2.07766007187500 5.09165978750000 4.47158696562500 
 N -4.67577207187500 0.533057787500001 3.61238296562500 
 N -4.27905707187500 4.22212078750000 3.50771896562500 
 N -5.61165107187500 0.671906787500001 7.41190196562500 
 N -4.75977607187500 5.02633478750000 7.31582996562500 
 S -6.18664207187500 0.189385787500001 5.96301696562500 
 S -5.55259707187500 4.24739978750000 6.06983496562500 
 S -3.10696207187500 1.16381178750000 3.30923496562500 
 S -2.67173207187500 4.53069778750000 3.02151996562500 
 S -4.06078507187500 1.20873378750000 7.39815896562500 
 S -3.16233307187500 5.46967178750000 6.95809196562500 
