16

 C -2.93872362812500 1.46534542187500 5.27935686562500 
 C -3.23867162812500 5.13744342187500 5.47860986562500 
 C -4.24298062812500 1.06008642187500 4.73800986562500 
 C -4.39087462812500 4.67832942187500 4.71727786562500 
 N -1.96425962812500 1.58883942187500 4.38906686562500 
 N -2.17331262812500 5.41333042187500 4.76338286562500 
 N -4.23671562812500 0.907034421874998 3.39356586562500 
 N -4.14982862812500 4.53598842187500 3.41697286562500 
 N -4.52040862812500 1.14483542187500 7.34993886562500 
 N -5.03623662812500 4.75561342187500 7.26609386562500 
 S -5.46507362812500 0.855672421874998 6.03297386562500 
 S -5.73114862812500 4.23316142187500 5.78787386562500 
 S -2.66888862812500 1.30558642187500 2.86837286562500 
 S -2.60440362812500 5.14221342187500 3.16510586562500 
 S -2.98365062812500 1.58042742187500 7.00095986562500 
 S -3.42104262812500 5.23770442187500 7.20606686562500 
