16

 C -2.86980898437500 1.56754159687500 5.46444359375000 
 C -3.46949098437500 5.13607359687500 5.17805959375000 
 C -4.02205898437500 0.991484596875001 4.73876159375000 
 C -4.56547898437500 4.29820259687500 4.65458959375000 
 N -1.81853798437500 1.65324459687500 4.65611959375000 
 N -2.36503898437500 5.13605359687500 4.46972459375000 
 N -3.91688798437500 0.887231596875001 3.42898759375000 
 N -4.37418798437500 3.97336059687500 3.37959959375000 
 N -4.79361598437500 1.43089359687500 7.18659059375000 
 N -5.33400998437500 5.12453359687500 6.92280959375000 
 S -5.38933598437500 0.794449596875000 5.77789859375000 
 S -5.95037498437500 4.09198959687500 5.77635559375000 
 S -2.34443798437500 1.11805559687500 3.14056359375000 
 S -2.76025998437500 4.40142259687500 3.00828259375000 
 S -3.23225198437500 2.00890859687500 7.05551959375000 
 S -3.85499598437500 5.75177359687500 6.71469059375000 
