16

 C -3.03303567187500 1.36671154687500 5.32015845625000 
 C -3.26333567187500 5.16748554687500 5.66825345625000 
 C -4.30952067187500 0.974711546875005 4.79269545625000 
 C -4.46802467187500 4.71780954687500 5.04399845625000 
 N -2.08592667187500 1.31614354687500 4.37716245625000 
 N -2.25771267187500 5.35579054687500 4.85125045625000 
 N -4.36507067187500 0.622592546875005 3.51529245625000 
 N -4.33509567187500 4.57715354687500 3.72131945625000 
 N -4.79286067187500 1.53393254687500 7.16861845625000 
 N -4.87754267187500 4.83267354687500 7.60949845625000 
 S -5.67821867187500 1.04337454687500 5.84082645625000 
 S -5.74705067187500 4.55974954687500 6.25510545625000 
 S -2.80878467187500 0.755921546875005 2.89647445625000 
 S -2.75395767187500 4.97689554687500 3.30744045625000 
 S -3.15084467187500 1.73350754687501 7.04638745625000 
 S -3.19112567187500 5.24435354687500 7.35594945625000 
