16

 C -3.04452460312500 1.43244742500000 5.49660262500000 
 C -3.01505160312500 4.95094942500000 5.29314462500000 
 C -4.23753660312500 0.916856425000002 4.84161562500000 
 C -4.27584960312500 4.70199742500000 4.65807262500000 
 N -2.00624060312500 1.53927742500000 4.71201162500000 
 N -1.99927960312500 4.67868942500000 4.47149362500000 
 N -4.12635360312500 0.745450425000003 3.52928662500000 
 N -4.29692360312500 4.58107542500000 3.31146562500000 
 N -4.80171260312500 1.32351442500000 7.37884462500000 
 N -4.69030960312500 5.25891742500000 7.20632962500000 
 S -5.60618860312500 0.922565425000003 5.97930162500000 
 S -5.58694760312500 4.88833642500000 5.80004562500000 
 S -2.46193660312500 1.05366142500000 3.22297162500000 
 S -2.61698160312500 4.56455442500000 2.95701562500000 
 S -3.29065560312500 1.84825542500000 7.20608562500000 
 S -3.00377060312500 5.32193442500000 6.96692362500000 
