16

 C -3.29218125937500 1.34921851875000 5.51248780312500 
 C -3.22557925937500 5.02439551875000 5.47238780312500 
 C -4.54979125937500 1.01098251875000 4.93250380312500 
 C -4.46789225937500 4.75376351875000 4.80632280312500 
 N -2.27439925937500 1.49276751875000 4.68884980312500 
 N -2.23901625937500 5.27140651875000 4.62797980312500 
 N -4.48792325937500 0.899867518750001 3.62146080312500 
 N -4.35648625937500 4.51753651875000 3.49659580312500 
 N -4.96681025937500 1.02548951875000 7.51378580312500 
 N -4.93727425937500 4.71867751875000 7.33062380312500 
 S -5.83531125937500 0.799391518750002 6.12418980312500 
 S -5.76186325937500 4.47941951875000 5.90907480312500 
 S -2.89016325937500 1.13086951875000 3.19506680312500 
 S -2.81748625937500 4.95671451875000 3.10662580312500 
 S -3.37820725937500 1.45345651875000 7.22958480312500 
 S -3.28387125937500 5.15496451875000 7.19036080312500 
