16

 C -2.99005654375000 1.49505547812500 5.57888824687500 
 C -3.09486254375000 5.04434247812500 5.27283024687500 
 C -4.18986654375000 0.851449478125001 5.05358324687500 
 C -4.30306354375000 4.46155547812500 4.75987924687500 
 N -1.96419054375000 1.51930847812500 4.74038224687500 
 N -2.03166354375000 4.94066947812500 4.44583024687500 
 N -4.07505454375000 0.457427478125001 3.79861224687500 
 N -4.22064454375000 4.12205447812500 3.47237924687500 
 N -4.67139454375000 1.34863747812500 7.46239124687500 
 N -4.88060654375000 5.15330247812500 7.11005824687500 
 S -5.54238454375000 0.756048478125002 6.18208324687500 
 S -5.65254054375000 4.40372047812500 5.82360224687500 
 S -2.54705054375000 0.832405478125001 3.31946324687500 
 S -2.63337154375000 4.26485747812500 3.05914924687500 
 S -3.06400654375000 1.84131147812500 7.30148824687500 
 S -3.27246554375000 5.37278247812500 6.95058124687500 
