16

 C -2.88510085000001 1.22693460312500 5.56786433125000 
 C -2.99239385000001 5.18671660312500 5.52434433125000 
 C -4.13128185000001 0.990778603125002 4.85461433125000 
 C -4.24057185000001 4.92373060312500 4.86047333125000 
 N -1.79910485000001 1.14531960312500 4.81132533125000 
 N -1.93431685000001 5.21391360312500 4.76389833125000 
 N -3.99860385000001 0.821568603125002 3.54660133125000 
 N -4.06509885000001 4.68230860312500 3.54564033125000 
 N -4.96855585000001 1.33336260312500 7.24396633125000 
 N -4.74595085000001 5.27465560312500 7.31293733125000 
 S -5.60792385000001 0.770394603125003 5.75207633125000 
 S -5.63403585000001 4.85456660312500 6.00831733125000 
 S -2.34594685000001 1.02287660312500 3.24098433125000 
 S -2.39587385000001 4.88306660312500 3.21786033125000 
 S -3.29033385000001 1.55915960312500 7.26214533125000 
 S -3.13336085000001 5.47148360312500 7.18705033125000 
