16

 C -2.98947651250000 1.44829347500000 5.47989671875000 
 C -3.27466551250000 5.31099147500000 5.46513771875000 
 C -4.25132851250000 0.904576475000002 4.87633671875000 
 C -4.44053951250000 4.82788347500000 4.77306771875000 
 N -2.04138851250000 1.69481747500000 4.55885771875000 
 N -2.24600751250000 5.59661947500000 4.68112971875000 
 N -4.26925751250000 0.852535475000002 3.54426071875000 
 N -4.27311251250000 4.66595747500000 3.47786071875000 
 N -4.69312351250000 1.20036747500000 7.33083371875000 
 N -5.14664551250000 4.67342747500000 7.23205171875000 
 S -5.49177851250000 0.699470475000003 5.99125371875000 
 S -5.83931751250000 4.42185947500000 5.72502571875000 
 S -2.76181051250000 1.22341847500000 3.11536671875000 
 S -2.77374851250000 5.15748347500000 3.10405971875000 
 S -3.08215751250000 1.62187147500000 7.15286271875000 
 S -3.53789751250000 5.22404647500000 7.19945271875000 
