16

 C -2.90384320312500 1.23918413437500 5.46873937500000 
 C -2.90190720312500 5.06277813437500 5.70005737500000 
 C -4.06786620312500 0.730341134375002 4.75374737500000 
 C -4.17894420312500 4.66729413437500 5.13594937500000 
 N -1.84770520312500 1.36107713437500 4.67358837500000 
 N -1.89595820312500 5.17036713437500 4.84284837500000 
 N -3.85998920312500 0.550953134375002 3.45114737500000 
 N -4.16457520312500 4.54545413437500 3.80537137500000 
 N -4.84211020312500 0.979349134375002 7.19491337500000 
 N -4.50460120312500 4.82279613437500 7.68597037500000 
 S -5.45975720312500 0.441803134375002 5.76220437500000 
 S -5.31518220312500 4.24123113437500 6.35828437500000 
 S -2.27932320312500 0.869495134375002 3.08642137500000 
 S -2.62162520312500 4.86265013437500 3.37083537500000 
 S -3.28006820312500 1.59107213437500 7.12508737500000 
 S -2.94451420312500 5.38369113437500 7.35473637500000 
