16

 C -3.37662274375000 1.55504719375000 5.39856930625000 
 C -3.14718474375000 5.32751419375000 5.65951130625000 
 C -4.51469574375000 0.929043193750003 4.72694430625000 
 C -4.41346274375000 4.90235919375000 5.07992630625000 
 N -2.33114074375000 1.91913619375000 4.68179630625000 
 N -2.09279774375000 5.30576619375000 4.79290630625000 
 N -4.31825274375000 0.997468193750003 3.40502030625000 
 N -4.40424274375000 4.87194719375000 3.74104030625000 
 N -5.37119374375000 1.51659119375000 7.08343130625000 
 N -4.84748974375000 5.06937719375000 7.52077830625000 
 S -5.99314074375000 0.723122193750003 5.71636830625000 
 S -5.72846274375000 4.67757219375000 6.16549630625000 
 S -2.77297974375000 1.50028719375000 3.13795530625000 
 S -2.75889774375000 5.06900519375000 3.28894330625000 
 S -3.79595074375000 2.03798619375000 7.05552930625000 
 S -3.24887074375000 5.36363919375000 7.38694730625000 
