16

 C -3.12932359062500 1.50441100625000 5.90005834687500 
 C -3.10330359062500 5.03505800625000 5.73513334687500 
 C -4.37454959062500 0.994304006249997 5.34908034687500 
 C -4.26443259062500 4.53028400625000 5.06081034687500 
 N -2.15053359062500 1.57376700625000 4.96773834687500 
 N -2.09809859062500 5.27766100625000 4.98831634687500 
 N -4.42137259062500 0.736488006249997 4.03276634687500 
 N -4.07978759062500 4.42641600625000 3.74796334687500 
 N -4.99400959062500 1.31574900625000 7.78499634687500 
 N -4.86735159062500 4.93335100625000 7.52194034687500 
 S -5.73629859062500 0.992255006249996 6.31317034687500 
 S -5.59061459062500 4.38307400625000 6.18612234687500 
 S -2.90340359062500 1.16636800625000 3.46752234687500 
 S -2.52720059062500 5.02045900625000 3.44556534687500 
 S -3.38263559062500 1.78492800625000 7.64033334687500 
 S -3.23106759062500 5.26780100625000 7.40052734687500 
