16

 C -2.85694534062500 1.50128518125000 5.43569855312500 
 C -3.47867334062500 5.13092718125000 5.19987755312500 
 C -4.05505934062500 1.06334518125000 4.84508155312500 
 C -4.55683734062500 4.33808318125000 4.65414155312500 
 N -1.79384934062500 1.59365118125000 4.66834855312500 
 N -2.34696734062500 5.16608018125000 4.48146055312500 
 N -3.92317234062500 0.892605181250001 3.53291655312500 
 N -4.31897934062500 3.98597018125000 3.39369955312500 
 N -4.78348434062500 1.42436218125000 7.13858155312500 
 N -5.33734634062500 5.14815018125000 7.00502055312500 
 S -5.42413034062500 0.805745181250002 5.72980155312500 
 S -5.90014134062500 4.12267218125000 5.77812555312500 
 S -2.35062334062500 1.14977018125000 3.09692855312500 
 S -2.76379234062500 4.38965018125000 3.02622855312500 
 S -3.17377534062500 1.95208518125000 7.07330555312500 
 S -3.83490234062500 5.81740518125000 6.72309355312500 
