16

 C -3.14091870625000 0.903003628124999 5.73601788125000 
 C -3.27471570625000 5.21580162812500 5.62710988125000 
 C -4.38645070625000 0.665589628124999 5.01313088125000 
 C -4.34816270625000 4.49843462812500 4.97519088125000 
 N -2.09437570625000 1.14860862812500 4.94483888125000 
 N -2.29580970625000 5.54287262812500 4.80123388125000 
 N -4.25533770625000 0.649403628125000 3.68067988125000 
 N -4.20210970625000 4.40396562812500 3.68046788125000 
 N -4.95644970625000 0.917405628125000 7.53645288125000 
 N -5.07430070625000 4.78044562812500 7.36558688125000 
 S -5.71976370625000 0.587846628124999 6.08436588125000 
 S -5.59415570625000 3.87140262812500 6.05731288125000 
 S -2.63246670625000 0.930198628124999 3.42258688125000 
 S -2.77903870625000 5.10531362812500 3.26593088125000 
 S -3.25887070625000 1.17769062812500 7.44878688125000 
 S -3.46906770625000 5.26866462812500 7.32842788125000 
