16

 C -3.29788809375000 1.13245697812500 5.99117635937500 
 C -2.91031309375000 4.69993297812500 5.28072235937500 
 C -4.45572109375000 0.611796978125001 5.19834835937500 
 C -4.22836709375000 4.44075497812500 4.73608735937500 
 N -2.28104609375000 1.47415897812500 5.18632335937500 
 N -1.90906309375000 4.85291997812500 4.39371635937500 
 N -4.24905009375000 0.701681978125002 3.86688135937500 
 N -4.22465809375000 4.47836097812500 3.41221735937500 
 N -4.96420209375000 0.439738978125002 7.69910235937500 
 N -4.69760509375000 4.54986497812500 7.23213635937500 
 S -5.78386309375000 0.325499978125002 6.24947335937500 
 S -5.56904209375000 4.52745997812500 5.84697635937500 
 S -2.67815609375000 1.30034797812500 3.60332035937500 
 S -2.69009109375000 4.72648197812500 2.89994835937500 
 S -3.51123509375000 1.31649897812500 7.68104935937500 
 S -3.05032609375000 4.84779797812500 7.06860335937500 
