16

 C -3.14126175937500 1.39840689687500 5.59533854687500 
 C -2.97148275937500 5.27940589687500 5.85387254687500 
 C -4.37507075937500 0.969293896874996 4.86588354687500 
 C -4.12295975937500 4.76170389687500 5.17832854687500 
 N -2.12948375937500 1.69335389687500 4.80880454687500 
 N -1.87937875937500 5.53046189687500 5.14808754687500 
 N -4.22600175937500 0.835133896874996 3.57525754687500 
 N -3.89162875937500 4.54252789687500 3.90250654687500 
 N -4.84437875937500 0.892477896874996 7.33976454687500 
 N -4.81510475937500 4.81611589687500 7.66795454687500 
 S -5.69658875937500 0.703009896874996 5.90587154687500 
 S -5.54261275937500 4.75806989687500 6.17968354687500 
 S -2.69616975937500 1.41259689687500 3.23766154687500 
 S -2.34130475937500 5.13409089687500 3.56015254687500 
 S -3.24793075937500 1.41873689687500 7.27577254687500 
 S -3.17820675937500 5.31759889687499 7.54342254687500 
