16

 C -2.99269217500000 1.41067458750000 5.30212207500000 
 C -3.29508417499999 4.94707758750000 5.52229707500000 
 C -4.21849117500000 0.860167587500000 4.75847307500000 
 C -4.43331817499999 4.37499658750000 4.85667707500000 
 N -2.01416517499999 1.63729158750000 4.42192707500000 
 N -2.32980017500000 5.26713658750000 4.69432207500000 
 N -4.24667717499999 0.800919587500001 3.45415107500000 
 N -4.38697317499999 4.37492458750000 3.52207507500000 
 N -4.73759417499999 1.04747958750000 7.33685107500000 
 N -5.02117117500000 4.52910558750000 7.41312107500000 
 S -5.56573417500000 0.744981587500001 5.94703707500000 
 S -5.75882117500000 4.07423358750000 6.02458707500000 
 S -2.77887317500000 1.33692558750000 2.92457207500000 
 S -2.89643217500000 5.07676558750000 3.13788307500000 
 S -3.21061917499999 1.69628158750000 7.09621107500000 
 S -3.42855117500000 5.02584558750000 7.25108107500000 
