16

 C -2.97448129687500 1.24034530625000 5.35767801875000 
 C -2.84814429687500 5.13174930625000 5.64038401875000 
 C -4.17394229687500 0.757013306250002 4.61184301875000 
 C -4.13047429687500 4.66427130625000 5.14205801875000 
 N -1.90484829687500 1.47841130625000 4.63187101875000 
 N -1.91967929687500 5.30805530625000 4.68877001875000 
 N -3.93473929687500 0.562354306250002 3.31841701875000 
 N -4.18672829687500 4.43599330625000 3.84167601875000 
 N -4.70528829687500 0.765329306250002 7.11591001875000 
 N -4.42363529687500 4.79917230625000 7.74070401875000 
 S -5.45023329687500 0.317848306250002 5.72313601875000 
 S -5.31639029687500 4.36784630625000 6.40687101875000 
 S -2.37958729687500 1.06979430625000 3.06657401875000 
 S -2.66813329687500 4.79745530625000 3.23648101875000 
 S -3.17588229687500 1.43937330625000 7.02842801875000 
 S -2.83367929687500 5.31825230625000 7.46305201875000 
