16

 C -3.29466965625000 1.30183227500000 5.25950640625000 
 C -3.17401065625000 5.35633527500000 5.57781540625000 
 C -4.52481365625000 0.727685275000001 4.75229340625000 
 C -4.34754065625000 5.09899427500000 4.80288340625000 
 N -2.29790165625000 1.45255627500000 4.37111740625000 
 N -2.08687365625000 5.49858927500000 4.81633640625000 
 N -4.51579065625000 0.608866275000001 3.43162940625000 
 N -4.20489565625000 5.18857527500000 3.45953440625000 
 N -4.98184865625000 1.05935427500000 7.29523740625000 
 N -5.10389665625000 4.99779627500000 7.19514040625000 
 S -5.82959965625000 0.476829275000000 5.91549140625000 
 S -5.76726865625000 5.02534427500000 5.71510540625000 
 S -2.99677765625000 0.903324275000001 2.91677140625000 
 S -2.61457365625000 5.42135427500000 3.21002940625000 
 S -3.45374865625000 1.58385127500000 6.97025540625000 
 S -3.47986965625000 5.15445227500000 7.23743240625000 
