16

 C -3.20602814062500 1.30102183437500 5.68951189062500 
 C -3.11643414062500 5.30774483437500 5.50097889062500 
 C -4.45999914062500 1.14973783437500 4.97673189062500 
 C -4.30159214062500 4.77541483437500 4.80080089062500 
 N -2.17293814062500 1.40339883437500 4.82792789062500 
 N -2.07951614062500 5.46815183437500 4.69761989062500 
 N -4.39147414062500 1.29818583437500 3.65943489062500 
 N -4.18163614062500 4.75007383437500 3.49577089062500 
 N -5.02707014062500 0.932826834375000 7.51774689062500 
 N -4.86694314062500 4.92289683437500 7.25889789062500 
 S -5.79753614062500 1.03006283437500 6.03140989062500 
 S -5.67197914062500 4.60383483437500 5.85728289062500 
 S -2.76821714062500 1.43808683437500 3.32971989062500 
 S -2.59483514062500 5.12804883437500 3.15232189062500 
 S -3.40715114062500 1.36621883437500 7.41357289062500 
 S -3.33388414062500 5.58267283437500 7.31136989062500 
