16

 C -3.11327077812500 1.14597550000000 5.77293406250000 
 C -3.13689777812500 4.97912550000000 5.60778306250000 
 C -4.44995077812500 0.838216500000002 5.18588306250000 
 C -4.39365377812500 4.64291450000000 4.97662006250000 
 N -2.08915377812500 1.20369550000000 4.92821506250000 
 N -2.17740477812500 5.22073750000000 4.69944106250000 
 N -4.35184177812500 0.588437500000002 3.88682006250000 
 N -4.34121377812500 4.45093250000000 3.63472706250000 
 N -4.83699377812500 1.51094550000000 7.68067606250000 
 N -4.90678977812500 5.02950250000000 7.50801206250000 
 S -5.76341777812500 1.16280750000000 6.28526406250000 
 S -5.70348577812500 4.54348250000000 6.12622606250000 
 S -2.78167077812500 0.820717500000002 3.42846906250000 
 S -2.81667377812500 5.03042450000000 3.20666106250000 
 S -3.17797077812500 1.66465550000000 7.38596406250000 
 S -3.28549777812500 5.47272450000000 7.23480306250000 
