16

 C -3.32562277812500 1.29894296562500 5.20900540312500 
 C -3.18694877812500 5.14217496562500 5.33550440312500 
 C -4.56041477812500 0.770669965624997 4.63716840312500 
 C -4.49999777812500 4.71694596562500 4.79736040312500 
 N -2.32503177812500 1.42065496562500 4.36127640312500 
 N -2.22732177812500 5.18636796562500 4.43159740312500 
 N -4.43514277812500 0.457596965624997 3.34193140312500 
 N -4.46584877812500 4.38836696562500 3.47389540312500 
 N -4.94236077812500 0.942813965624996 7.15268640312500 
 N -4.85175077812500 4.77750696562500 7.42099340312500 
 S -5.86326877812500 0.802149965624997 5.79916740312500 
 S -5.79301377812500 4.62244996562500 5.97800540312500 
 S -2.86639277812500 0.746072965624997 2.96080640312500 
 S -2.91147277812500 4.65145296562500 2.98514140312500 
 S -3.40692877812500 1.44167096562500 6.98936640312500 
 S -3.23408477812500 5.36613596562500 7.15529740312500 
