16

 C -2.93279739062500 1.63197006250000 5.77647006250000 
 C -3.14503839062500 5.29597406250000 5.69778006250000 
 C -4.15970439062500 1.37656406250000 5.13655706250000 
 C -4.37931839062500 4.89831006250000 5.07661306250000 
 N -1.96907539062500 1.87079006250000 4.92324206250000 
 N -2.18673839062500 5.41698206250000 4.82216206250000 
 N -4.16982639062500 1.55055306250000 3.82925406250000 
 N -4.36097939062500 4.76148806250000 3.74930706250000 
 N -4.67503439062500 1.62611506250000 7.60722506250000 
 N -4.82328439062500 5.25664306250000 7.64541006250000 
 S -5.48886939062500 1.48197006250000 6.20830606250000 
 S -5.65156939062500 4.82520206250000 6.24503806250000 
 S -2.58671739062500 1.83506606250000 3.40634406250000 
 S -2.81857339062500 5.06195406250000 3.30193106250000 
 S -3.02747739062500 1.78871606250000 7.46851706250000 
 S -3.16359939062500 5.54662906250000 7.43737306250000 
