16

 C -3.24052840312500 1.39491986562500 5.68266175000000 
 C -3.25047940312500 5.53128486562500 5.47329375000000 
 C -4.56135840312500 1.26765686562500 5.03871175000000 
 C -4.40201340312500 4.90864186562500 4.86426175000000 
 N -2.20320340312500 1.32286486562500 4.87010775000000 
 N -2.12545640312500 5.62912386562500 4.73095475000000 
 N -4.40284940312500 1.13126686562500 3.72307375000000 
 N -4.17505840312500 4.64840286562500 3.55509675000000 
 N -4.96466240312500 1.13756986562500 7.56310375000000 
 N -4.93568640312500 4.94109286562500 7.38733275000000 
 S -5.89186140312500 1.02674086562500 6.17471475000000 
 S -5.67581740312500 4.55355486562500 5.98751275000000 
 S -2.77713140312500 1.11545986562500 3.34526975000000 
 S -2.58481040312500 5.09455586562500 3.25557675000000 
 S -3.32270240312500 1.39515886562500 7.41034975000000 
 S -3.38069340312500 5.41853286562500 7.17994975000000 
