16

 C -3.35193122187500 1.37650800625000 5.29151919062500 
 C -3.17228322187500 5.04035100625000 5.40448019062500 
 C -4.57881322187500 0.855314006250004 4.65414119062500 
 C -4.40995422187500 5.05830800625000 4.65205619062500 
 N -2.32550022187500 1.44477700625000 4.45506419062500 
 N -2.11089322187500 5.24844500625000 4.66977419062500 
 N -4.50062122187500 0.655590006250003 3.33287119062500 
 N -4.23816122187500 5.21565700625000 3.37103319062500 
 N -4.96850122187500 1.19479300625000 7.22410119062500 
 N -4.98007922187500 4.75256300625000 7.24978719062500 
 S -5.79261222187500 0.577829006250004 5.85085319062500 
 S -5.78547022187500 4.98451500625000 5.76670019062500 
 S -2.96338122187500 1.11654900625000 2.90583519062500 
 S -2.59182522187500 5.43190500625000 3.08434119062500 
 S -3.36898422187500 1.58248600625000 7.00066919062500 
 S -3.31713422187500 5.09924200625000 7.13840919062500 
