16

 C -3.26287296562500 1.56470792812500 5.85911103125000 
 C -3.00698496562500 5.20900592812500 5.78612903125000 
 C -4.45667696562500 1.15378292812500 5.21555103125000 
 C -4.24542396562500 4.72071492812500 5.15430103125000 
 N -2.19930296562500 1.63539992812500 5.05159803125000 
 N -2.01530096562500 5.40257892812500 4.96172603125000 
 N -4.27262396562500 0.856360928124999 3.89953203125000 
 N -4.15453696562500 4.53786992812500 3.83617303125000 
 N -4.99389296562500 1.31783492812500 7.71168003125000 
 N -4.91895296562500 4.97563992812500 7.61828003125000 
 S -5.80421796562500 0.850207928124999 6.33776203125000 
 S -5.57843596562500 4.28854792812500 6.22460603125000 
 S -2.74696796562500 1.24779592812500 3.54608403125000 
 S -2.59110696562500 4.90653092812500 3.43001903125000 
 S -3.40595096562500 1.81526092812500 7.51855103125000 
 S -3.28987896562500 5.39695192812500 7.57502103125000 
