16

 C -3.12724202500000 1.35416844062500 5.47172432812500 
 C -3.17218702500000 4.94070544062500 5.59788232812500 
 C -4.35990902500000 0.872809440624995 4.87911332812500 
 C -4.40226902500000 4.60017744062499 4.90064332812500 
 N -2.15978302500000 1.67850544062500 4.58746832812500 
 N -2.21254702500000 5.40051244062500 4.81466732812500 
 N -4.27172502500000 0.663453440624996 3.56912232812500 
 N -4.25508302500000 4.50142144062499 3.59783032812500 
 N -4.80557502500000 1.11399844062500 7.45201432812500 
 N -4.91332002500000 4.82634544062500 7.40015432812500 
 S -5.66149702500000 0.866901440624996 6.07548132812500 
 S -5.69250802500000 4.40007444062500 6.04548032812500 
 S -2.66466702500000 1.04613844062500 3.08909032812500 
 S -2.74966702500000 5.13548644062500 3.22487532812500 
 S -3.20499502500000 1.61986044062500 7.28115232812500 
 S -3.33307002500000 5.07929444062500 7.32720432812500 
