16

 C -3.29149665937500 1.42221632812500 5.68132629062500 
 C -3.54871665937500 5.32124032812500 5.49849129062500 
 C -4.43416965937500 0.857840328125000 5.01577529062500 
 C -4.63402165937500 4.57195432812500 4.87323829062500 
 N -2.36011765937500 1.81428332812500 4.81342629062500 
 N -2.52286565937500 5.59372932812500 4.74367829062500 
 N -4.36210665937500 0.799749328124999 3.69384229062500 
 N -4.45958865937500 4.47574632812500 3.57963829062500 
 N -4.86085265937500 0.968050328124999 7.57800029062500 
 N -5.35709065937500 4.92549932812500 7.29730629062500 
 S -5.72306465937500 0.520780328124999 6.14613429062500 
 S -5.91673965937500 4.13765532812500 5.94155329062500 
 S -2.83362165937500 1.28799432812500 3.29001029062500 
 S -2.97220465937500 5.06536132812500 3.23816929062500 
 S -3.30789265937500 1.56011032812500 7.39371329062500 
 S -3.80338265937500 5.55467532812500 7.16102729062500 
