16

 C -3.26655352500000 1.40859650000000 5.82585572500000 
 C -2.92103152500000 4.90863750000000 5.66814172500000 
 C -4.52275552500000 0.916359500000002 5.27830572500000 
 C -4.14601952500000 4.53337150000000 5.02492972500000 
 N -2.26966452500000 1.42605350000000 4.97667272500000 
 N -1.96814452500000 5.18114050000000 4.77789572500000 
 N -4.50873552500000 0.572540500000002 4.01536572500000 
 N -4.09787752500000 4.50467450000000 3.71173372500000 
 N -4.80401252500000 1.45726850000000 7.88153672500000 
 N -4.84111752500000 4.74407150000000 7.36326872500000 
 S -5.79773152500000 1.15503850000000 6.53676572500000 
 S -5.56021552500000 4.42824450000000 5.99894372500000 
 S -2.89096752500000 0.968992500000002 3.51831172500000 
 S -2.55449752500000 4.93861650000000 3.22763172500000 
 S -3.15324452500000 1.71696750000000 7.45533872500000 
 S -3.18533852500000 5.05333650000000 7.42307772500000 
