16

 C -2.96104713125000 1.20003054062500 5.54276948437500 
 C -2.97277213125000 5.10381054062500 5.66553348437500 
 C -4.10245813125000 0.701240540625001 4.86374748437500 
 C -4.12030213125000 4.46431254062500 5.10590848437500 
 N -1.88868813125000 1.39374654062500 4.77522948437500 
 N -2.01976013125000 5.34956554062500 4.77753248437500 
 N -3.92630713125000 0.347603540625001 3.59383148437500 
 N -4.02278913125000 4.09187354062500 3.84805448437500 
 N -4.86702013125000 1.35911054062500 7.27994248437500 
 N -4.72132813125000 4.82304654062500 7.51629048437500 
 S -5.59084713125000 0.635856540625001 5.95082648437500 
 S -5.48464313125000 4.38468654062500 6.08603448437500 
 S -2.32357513125000 0.782936540625001 3.31704448437500 
 S -2.57186713125000 4.72652054062500 3.34991048437500 
 S -3.25148113125000 1.62160554062500 7.25066048437500 
 S -3.16469313125000 5.36101954062500 7.35728148437500 
