16

 C -3.08915313437500 1.45167056562500 5.39062156562500 
 C -2.95144213437500 5.21941756562500 5.69400256562500 
 C -4.31110213437500 1.06161056562500 4.75144756562500 
 C -4.18019613437500 4.76009756562500 5.07911256562500 
 N -1.96512613437500 1.37607356562500 4.66820656562500 
 N -1.94063613437500 5.35464656562500 4.83987156562500 
 N -4.04680013437500 0.565515565625001 3.49673556562500 
 N -4.13153613437500 4.55959856562500 3.76793156562500 
 N -4.78592113437500 1.34467756562500 7.30906656562500 
 N -4.83497613437500 4.88954356562500 7.52465856562500 
 S -5.70513813437500 1.11396256562500 5.94120456562500 
 S -5.60693313437500 4.79502856562500 6.02722956562500 
 S -2.44491513437500 0.798486565625000 3.18084556562500 
 S -2.65623913437500 4.92849056562500 3.31530056562500 
 S -3.11229913437500 1.62292656562500 7.07493056562500 
 S -3.29087913437500 5.39879856562500 7.46254656562500 
