16

 C -3.14919708750000 1.35931699062500 5.26281798437500 
 C -3.01077808750000 4.90755699062500 5.54042498437500 
 C -4.24386608750000 0.683078990625000 4.70916198437500 
 C -4.35609608750000 4.71809899062500 5.03298798437500 
 N -2.16190608750000 1.74162099062500 4.42462798437500 
 N -2.01729908750000 4.96575499062500 4.67626098437500 
 N -4.10153508750000 0.327314990625000 3.42636198437500 
 N -4.35137508750000 4.55846599062500 3.71778398437500 
 N -4.93235808750000 1.02115099062500 7.14699798437500 
 N -4.67761408750000 4.87360499062500 7.60074898437500 
 S -5.53516108750000 0.269077990625000 5.80146498437500 
 S -5.55398208750000 4.40076699062500 6.26678198437500 
 S -2.66731108750000 1.04026099062500 2.95577398437500 
 S -2.79126608750000 4.77891999062500 3.19540198437500 
 S -3.37291908750000 1.64234499062500 7.03848598437500 
 S -3.02865608750000 5.07334799062500 7.23082598437500 
