16

 C -2.92546662187500 2.05714788750000 5.39576277812500 
 C -2.99808362187501 5.15761088750000 5.43590577812500 
 C -4.07259362187501 1.44850288750000 4.81143077812500 
 C -4.24311362187500 4.90324388750000 4.73598377812500 
 N -1.92048962187501 2.30566788750000 4.58570477812500 
 N -1.89523062187501 5.18047188750000 4.69328277812500 
 N -3.90505862187501 1.25741688750000 3.50161077812500 
 N -4.13109762187501 4.88681788750000 3.40206877812500 
 N -4.62340262187501 1.84453688750000 7.32995277812500 
 N -4.97197762187501 4.98187088750000 7.20230577812500 
 S -5.42631062187500 1.46399388750000 5.96632077812500 
 S -5.59142162187501 4.54495488750000 5.71569177812500 
 S -2.39187062187501 1.74017388750000 3.04121677812500 
 S -2.54440262187501 5.10082988750000 3.07830377812500 
 S -3.03848262187500 2.27507688750000 7.09908877812500 
 S -3.37316962187501 5.31352788750000 7.14446377812500 
