16

 C -3.29373811250000 1.04279987812500 5.66375630312500 
 C -2.86351111250000 4.96168587812500 5.52576230312500 
 C -4.46927011250000 0.572285878124998 4.90888230312500 
 C -4.05133711250000 4.48206587812500 4.87817630312500 
 N -2.26677211250000 1.44163987812500 4.88338930312500 
 N -1.87683011250000 5.32283687812500 4.67730930312500 
 N -4.26432911250000 0.402402878124999 3.60760330312500 
 N -3.91143111250000 4.29604787812500 3.56361330312500 
 N -5.14252911250000 0.729492878124999 7.49891230312500 
 N -4.70165811250000 4.68186987812500 7.36470430312500 
 S -5.85367811250000 0.353686878124998 5.98747330312500 
 S -5.42617811250000 4.36976787812500 5.93538930312500 
 S -2.63953211250000 0.863581878124998 3.35154330312500 
 S -2.43143111250000 4.91548487812500 3.13835730312500 
 S -3.51027111250000 1.09462587812500 7.47394730312500 
 S -3.11806611250000 5.21464787812500 7.25395530312500 
