16

 C -3.29127901562500 1.30811929375000 5.55943906250000 
 C -3.36045701562500 4.98454529375000 5.26971906250000 
 C -4.49495101562500 0.727402293750001 4.90934306250000 
 C -4.55040401562500 4.45120529375000 4.60294806250000 
 N -2.34163701562500 1.58078129375000 4.65615806250000 
 N -2.35474201562500 5.19410029375000 4.40446406250000 
 N -4.36766001562500 0.601722293750001 3.58635806250000 
 N -4.52320901562500 4.43435729375000 3.27730506250000 
 N -5.02366701562500 0.909291293750001 7.42506406250000 
 N -5.16962001562500 4.56307529375000 7.12089206250000 
 S -5.80225101562500 0.438024293750001 6.05410806250000 
 S -5.98353701562500 4.35498429375000 5.68402306250000 
 S -2.83786501562500 1.09519129375000 3.14974806250000 
 S -2.97318501562500 4.93468129375000 2.89163006250000 
 S -3.51049201562500 1.56438129375000 7.32074206250000 
 S -3.54672401562500 5.04779729375000 6.96235206250000 
