16

 C -3.11364646250000 1.09807208437500 5.46578575312500 
 C -3.16155746250000 5.57573708437500 5.49109075312500 
 C -4.40721746250000 0.829487084375000 4.88940075312500 
 C -4.19664846250000 4.73653208437500 4.87857275312500 
 N -2.10561846250000 1.16271408437500 4.67864875312500 
 N -2.07357246250000 5.74713908437500 4.75701975312500 
 N -4.32506446250000 0.916147084375000 3.57675175312500 
 N -3.97104046250000 4.57664808437500 3.57392275312500 
 N -4.80689546250000 1.06088908437500 7.40194175312500 
 N -5.02985646250000 5.23675408437500 7.22037175312500 
 S -5.74496446250000 0.757160084374999 6.01123475312500 
 S -5.55070146250000 4.43657508437500 5.92153775312500 
 S -2.66869346250000 0.984758084375000 3.10807975312500 
 S -2.49601546250000 5.12495808437500 3.23513675312500 
 S -3.18091346250000 1.39140808437500 7.16887675312500 
 S -3.53687346250000 5.97363508437500 7.15680375312500 
