16

 C -3.14090598750000 1.65342197187500 5.44750419062500 
 C -3.66051798750000 4.92827497187500 5.03648319062500 
 C -4.21003398750000 0.757041971874997 4.95491419062500 
 C -4.76513398750000 4.24869397187500 4.38891519062500 
 N -2.14747898750000 1.82922897187500 4.59001319062500 
 N -2.63679898750000 5.20774997187500 4.22734719062500 
 N -3.97812098750000 0.302863971874998 3.72599719062500 
 N -4.49755598750000 3.96541297187500 3.11373019062500 
 N -4.87639398750000 1.37476697187500 7.41795919062500 
 N -5.39301498750000 4.73909797187500 6.83926219062500 
 S -5.54309498750000 0.491736971874997 6.17119019062500 
 S -6.00848598750000 3.86623197187500 5.55720119062500 
 S -2.60066298750000 1.11233397187500 3.14750319062500 
 S -3.01786998750000 4.59163397187500 2.75207119062500 
 S -3.39470798750000 2.06128997187500 7.14446919062500 
 S -3.84860698750000 5.22171097187500 6.73565619062500 
