16

 C -2.95413905312500 1.92083844375000 5.62916543437500 
 C -3.20674905312500 5.60411544375000 5.30453643437500 
 C -4.18334805312500 1.63563444375000 4.97064643437500 
 C -4.38260205312500 4.94599744375000 4.68616943437500 
 N -1.90852805312500 1.96304144375000 4.83148243437500 
 N -2.25649805312500 5.90238644375000 4.41307243437500 
 N -4.07702905312500 1.61588944375000 3.62717043437500 
 N -4.26525605312500 4.65578544375000 3.40375343437500 
 N -4.63243205312500 1.55349844375000 7.56072743437500 
 N -4.92960605312500 4.99514344375000 7.18584643437500 
 S -5.48441205312500 1.42277644375000 6.14777543437500 
 S -5.67422405312500 4.50717344375000 5.79062343437500 
 S -2.50787805312500 1.86706244375000 3.22260743437500 
 S -2.80696105312500 5.24731744375000 2.91717443437500 
 S -3.03955105312500 2.08092944375000 7.33820643437500 
 S -3.30334505312500 5.50611144375000 7.07590943437500 
