16

 C -3.12389089375000 1.03334547500000 5.53057189375000 
 C -3.14418089375000 5.49444747500000 5.56971589375000 
 C -4.42793089375000 0.871465475000003 4.84857889375000 
 C -4.21709689375000 4.87573347500000 4.85166589375000 
 N -2.08227889375000 1.07218747500000 4.66647289375000 
 N -2.09703189375000 5.77037847500000 4.79076289375000 
 N -4.35364689375000 0.779106475000003 3.52307689375000 
 N -4.00921589375000 4.62679947500000 3.54097089375000 
 N -4.88110689375000 1.13586447500000 7.37920889375000 
 N -4.97061889375000 5.17662747500000 7.37187689375000 
 S -5.75610889375000 0.722917475000002 5.98627289375000 
 S -5.49378489375000 4.45057547500000 5.91851489375000 
 S -2.73761589375000 1.05311047500000 3.19053989375000 
 S -2.43883789375000 5.23250847500000 3.27164089375000 
 S -3.23037189375000 1.43223047500000 7.18273989375000 
 S -3.53356189375000 5.99408847500000 7.18583289375000 
