16

 C -3.16022159375000 1.20616972187500 5.65531736250000 
 C -3.05108559375000 4.90091972187500 5.57886536250000 
 C -4.40864859375000 0.799635721875001 5.08037136250000 
 C -4.30495759375000 4.51421372187500 4.98564636250000 
 N -2.17228459375000 1.28400672187500 4.74318336250000 
 N -2.01121359375000 4.85806172187500 4.73445636250000 
 N -4.38069359375000 0.491128721875001 3.76170236250000 
 N -4.19499659375000 4.13498172187500 3.69378036250000 
 N -4.82179959375000 1.25945572187500 7.65802736250000 
 N -4.83045159375000 4.86480872187500 7.44356436250000 
 S -5.67829859375000 0.851020721875001 6.27525136250000 
 S -5.64415559375000 4.35775572187500 6.14400536250000 
 S -2.81111459375000 0.770914721875001 3.29965936250000 
 S -2.61221659375000 4.39163372187500 3.26758236250000 
 S -3.20601759375000 1.68024972187500 7.40165736250000 
 S -3.26361159375000 5.17520572187500 7.26455236250000 
