16

 C -3.16213852187500 1.29676348750000 5.28770481562500 
 C -2.87775952187500 4.97692148750000 5.65843281562500 
 C -4.28938552187500 0.789988487499997 4.60977381562500 
 C -4.12390652187500 4.51263348750000 5.09506481562500 
 N -2.14104452187500 1.60807248750000 4.50377181562500 
 N -1.98460752187500 5.23556148750000 4.71480681562500 
 N -4.07592652187500 0.586162487499998 3.30828181562500 
 N -4.11352952187500 4.23870148750000 3.79186581562500 
 N -4.82319952187500 0.754955487499998 7.07511581562500 
 N -4.54069652187500 4.64874148750000 7.67354781562500 
 S -5.61608952187500 0.298432487499997 5.64875581562500 
 S -5.42104852187500 4.49197648750000 6.23676981562500 
 S -2.61829652187500 1.28405148750000 3.01105981562500 
 S -2.65922652187500 4.79742748750000 3.27691281562500 
 S -3.32590152187500 1.42489548750000 6.96490281562500 
 S -2.93642552187500 5.11268848750000 7.39753981562500 
