16

 C -2.80176768125000 1.81326306562500 5.47935891250000 
 C -3.13591068125000 5.21864706562500 5.67283491250000 
 C -4.08002768125000 1.44609706562500 4.97033191250000 
 C -4.37816768125000 4.72007406562500 5.10168291250000 
 N -1.82831768125000 1.99556806562500 4.56537391250000 
 N -2.17157668125000 5.38510506562500 4.74532091250000 
 N -4.12782468125000 1.17374506562500 3.67340691250000 
 N -4.35192368125000 4.51746406562500 3.78215491250000 
 N -4.52794868125000 1.54686506562500 7.56966291250000 
 N -4.93294568125000 5.05860906562500 7.57240791250000 
 S -5.39138868125000 1.51907706562500 6.15130091250000 
 S -5.73992968125000 4.66911606562500 6.14455291250000 
 S -2.59268068125000 1.54324006562500 3.10852291250000 
 S -2.79752868125000 4.90302306562500 3.30918991250000 
 S -2.91002668125000 1.96382306562500 7.27312991250000 
 S -3.29551868125000 5.30258206562500 7.47421991250000 
