16

 C -3.37150266875000 1.53512415937500 5.49070554062500 
 C -3.05948066875000 5.32915815937500 5.64188554062500 
 C -4.49861566875000 0.963587159375001 4.78266154062500 
 C -4.34069166875000 5.00720615937500 5.04648454062500 
 N -2.30432566875000 1.76294415937500 4.68974854062500 
 N -2.07281266875000 5.41848215937500 4.77898254062500 
 N -4.32683566875000 0.877290159375001 3.47627154062500 
 N -4.30301966875000 4.90088415937500 3.74791254062500 
 N -5.35889466875000 1.49471015937500 7.07088854062500 
 N -4.86417266875000 5.08084915937500 7.58655454062500 
 S -5.93145866875000 0.726572159375000 5.73414854062500 
 S -5.70167466875000 4.64473115937500 6.16485954062500 
 S -2.76029766875000 1.48251715937500 3.14373354062500 
 S -2.78845766875000 5.17264415937500 3.25002754062500 
 S -3.80085766875000 2.04041515937500 7.04347354062500 
 S -3.23475366875000 5.43558315937500 7.37593354062500 
