16

 C -3.33449544062500 0.912779468749998 5.44469081875000 
 C -3.18967144062500 4.85885546875000 5.61083681875000 
 C -4.57501544062500 0.748033468749998 4.76389181875000 
 C -4.43425144062500 4.55930946875000 4.99775681875000 
 N -2.30999844062500 1.11457346875000 4.62386581875000 
 N -2.17717744062500 5.10701946875000 4.75734481875000 
 N -4.45022644062500 0.837953468749999 3.42591081875000 
 N -4.38933244062500 4.42731346875000 3.68073781875000 
 N -4.93950544062500 0.561830468749998 7.34233281875000 
 N -5.00732844062500 4.66964946875000 7.48458781875000 
 S -5.79202644062500 0.313112468749999 5.92042881875000 
 S -5.77847044062500 4.50240646875000 6.01768781875000 
 S -2.85862744062500 0.993676468749999 3.06933581875000 
 S -2.90053944062500 4.80933846875000 3.20595481875000 
 S -3.31599944062500 0.811982468749998 7.13222781875000 
 S -3.32584344062500 4.71108246875000 7.35630881875000 
