16

 C -2.90203606250000 1.34431785000000 5.28313596562500 
 C -3.16118606250000 5.05394385000000 5.34748396562500 
 C -4.22956606250000 0.942852850000001 4.82214296562500 
 C -4.44636006250000 4.44973485000000 4.87713796562500 
 N -1.95741306250000 1.43752785000000 4.36829296562500 
 N -2.26596706250000 5.34831885000000 4.43986796562500 
 N -4.27144306250000 0.609719850000001 3.53597896562500 
 N -4.51657706250000 4.33048285000000 3.55627296562500 
 N -4.53857706250000 1.31350185000000 7.36472496562500 
 N -4.80790606250000 4.93813385000000 7.32045296562500 
 S -5.43960206250000 0.892069850000002 6.02978396562500 
 S -5.63109206250000 4.19042485000000 6.08911696562500 
 S -2.71714206250000 1.02279685000000 2.90247296562500 
 S -3.05323806250000 4.94063485000000 2.98901796562500 
 S -2.95944306250000 1.64622485000000 7.06519896562500 
 S -3.24626806250000 5.38835885000000 7.04215496562500 
