16

 C -3.41971594687500 1.22051277187501 5.53269474375000 
 C -3.09379594687500 5.08226077187501 5.37522574375000 
 C -4.51829494687500 0.592342771875008 4.80517574375000 
 C -4.28124594687500 4.75568177187501 4.67598174375000 
 N -2.32698294687500 1.44367677187501 4.81083674375000 
 N -1.95208494687500 5.00301777187501 4.66635574375000 
 N -4.30137594687500 0.480527771875008 3.49144974375000 
 N -4.12469294687500 4.38797477187501 3.37278374375000 
 N -5.38511694687500 1.13103177187501 7.05262974375000 
 N -5.12733094687500 5.44631177187501 7.02046674375000 
 S -5.90053194687500 0.201567771875008 5.83275674375000 
 S -5.71558694687500 4.82015577187501 5.63609774375000 
 S -2.75391194687500 1.01404377187501 3.23585274375000 
 S -2.49624694687500 4.50771377187501 3.11637674375000 
 S -3.85081994687500 1.61167977187501 7.13894074375000 
 S -3.41227994687500 5.51937677187501 7.00322774375000 
