16

 C -2.83987600312499 1.30137805000000 5.72586776562500 
 C -2.93584600312499 4.89527105000000 5.40458976562500 
 C -4.15911300312499 1.21277105000000 5.21225376562500 
 C -4.15037100312499 4.55449605000000 4.67750976562500 
 N -1.91457400312499 0.992898050000000 4.75882776562500 
 N -1.84342500312499 4.88540205000000 4.63612376562500 
 N -4.37204100312499 0.734305050000001 3.99149876562500 
 N -4.01859700312499 4.31094805000000 3.39246676562500 
 N -4.56601400312499 1.62775305000000 7.66164876562500 
 N -4.77421600312499 4.88408205000000 7.25038676562500 
 S -5.49316500312499 1.42679605000000 6.29145676562500 
 S -5.57613100312499 4.51506505000000 5.88876176562500 
 S -2.80552400312499 0.580993049999999 3.37894976562500 
 S -2.33011200312499 4.46569405000000 3.13330776562500 
 S -2.88191300312499 1.53329205000000 7.42810476562500 
 S -3.03690200312499 4.85788405000000 7.09926876562500 
