16

 C -2.98489541250000 1.54795504687500 5.70900315937500 
 C -3.11243841250000 4.62057204687500 5.55230015937500 
 C -4.25987641250000 1.11064304687500 5.11695315937500 
 C -4.39266141250000 4.35005804687500 4.86636815937500 
 N -1.92858341250000 1.67095304687500 4.86231915937500 
 N -2.07422441250000 4.67378404687500 4.71971715937500 
 N -4.18684041250000 0.942822046875001 3.78892315937500 
 N -4.26422141250000 4.24008004687500 3.54367815937500 
 N -4.81180741250000 1.51194904687500 7.59832215937500 
 N -4.86687441250000 4.52911404687500 7.35705515937500 
 S -5.63054141250000 1.22616004687500 6.17399315937500 
 S -5.74338441250000 4.22587204687500 5.96666615937500 
 S -2.61945241250000 1.23410704687500 3.43157615937500 
 S -2.62973941250000 4.46772904687500 3.21074715937500 
 S -3.12350941250000 1.71323004687500 7.45624515937500 
 S -3.21567441250000 4.71429704687500 7.28607915937500 
