16

 C -3.01337203437500 1.51364420312499 5.39189301250000 
 C -3.12734203437500 5.11594220312499 5.38189901250000 
 C -4.22536303437500 1.10121420312499 4.65688201250000 
 C -4.32246503437500 4.50525420312499 4.86257901250000 
 N -1.94603903437500 1.66689520312499 4.64265101250000 
 N -2.12417503437500 5.38205920312499 4.56246401250000 
 N -4.03240203437500 1.01081620312499 3.34418301250000 
 N -4.19117203437500 4.22674820312499 3.57481501250000 
 N -4.80656803437500 1.22508320312499 7.11988401250000 
 N -4.75971703437500 4.70976620312499 7.39878701250000 
 S -5.59993703437500 1.01687320312499 5.67353101250000 
 S -5.58496003437500 4.24911120312499 6.03172501250000 
 S -2.36945103437500 1.21758520312499 3.11423601250000 
 S -2.64944903437500 4.71656420312499 3.13034001250000 
 S -3.20633303437500 1.68884420312499 7.07027301250000 
 S -3.23219503437500 5.29406720312499 7.06842401250000 
