16

 C -3.29218099375000 1.04035749687500 5.65748449687500 
 C -2.85907799375000 4.95626049687500 5.52660449687500 
 C -4.46145499375000 0.572046496875000 4.90095849687500 
 C -4.05381499375000 4.48475549687500 4.87474349687500 
 N -2.26495199375000 1.43563049687500 4.88476349687500 
 N -1.87783599375000 5.32548449687500 4.67052949687500 
 N -4.26001599375000 0.398348496875000 3.60513749687500 
 N -3.90655299375000 4.28967949687500 3.56157249687500 
 N -5.14420099375000 0.733328496875000 7.49952049687500 
 N -4.69813999375000 4.68564749687500 7.35563549687500 
 S -5.85377699375000 0.353464496875000 5.99012449687500 
 S -5.43291899375000 4.36933549687500 5.93882349687500 
 S -2.63764599375000 0.866501496875000 3.35160749687500 
 S -2.42568299375000 4.91605949687500 3.14055749687500 
 S -3.51518699375000 1.08742449687500 7.47294849687500 
 S -3.11979099375000 5.21150749687500 7.25079849687500 
