16

 C -3.49450985312500 1.78147270000000 5.58675208750000 
 C -2.94597385312500 5.16177870000000 5.57171008750000 
 C -4.67696185312500 1.30453370000000 4.90875808750000 
 C -4.24664485312500 4.94533570000000 5.03152708750000 
 N -2.44247385312500 2.00213570000000 4.75664908750000 
 N -2.00792185312500 5.22028270000000 4.64838308750000 
 N -4.45010885312500 1.04333770000000 3.61180808750000 
 N -4.27561385312500 4.84777470000000 3.74732508750000 
 N -5.21544085312500 1.39715670000000 7.46875008750000 
 N -4.64396385312500 5.02416770000000 7.55580908750000 
 S -6.00008585312500 1.11068870000000 6.01390708750000 
 S -5.59075185312500 4.92242170000000 6.15713108750000 
 S -2.88170485312500 1.44736370000000 3.30024808750000 
 S -2.70319285312500 4.93577370000000 3.17128408750000 
 S -3.58738385312500 1.79839970000000 7.27898908750000 
 S -2.96801485312500 5.28499470000000 7.33955108750000 
