16

 C -3.27051495937500 1.36675025312500 5.53482110000000 
 C -3.28681395937500 5.05236625312500 5.44659410000000 
 C -4.56152795937500 1.07124125312500 4.88977510000000 
 C -4.53723495937500 4.65889825312500 4.83245510000000 
 N -2.21298795937500 1.53655225312500 4.68649710000000 
 N -2.27560995937500 5.30924225312500 4.62048510000000 
 N -4.46246295937500 0.903990253125001 3.54067210000000 
 N -4.42408495937500 4.50773125312500 3.52789510000000 
 N -5.01313595937500 1.13361125312500 7.50055710000000 
 N -4.96806095937500 4.80737925312500 7.35987910000000 
 S -5.82996495937500 0.765710253125000 6.09165510000000 
 S -5.75971895937500 4.43047425312500 5.93954010000000 
 S -2.86842595937500 1.16913525312500 3.18496210000000 
 S -2.87349995937500 4.92638825312500 3.09957910000000 
 S -3.39132195937500 1.45372925312500 7.27617110000000 
 S -3.34548195937500 5.13875225312500 7.21098510000000 
