16

 C -2.85146002187500 1.20412980937500 5.57762893437500 
 C -3.02930902187500 5.16966080937500 5.51320593437500 
 C -4.12035502187500 0.989532809375002 4.84973693437500 
 C -4.24434102187500 4.87908180937500 4.83651093437500 
 N -1.76201502187500 1.12805280937500 4.77296893437500 
 N -1.89485902187500 5.22153480937500 4.77568893437500 
 N -4.00724802187500 0.816676809375003 3.57279193437500 
 N -4.06939302187500 4.68067080937500 3.52584993437500 
 N -4.98963602187500 1.32793780937500 7.26367393437500 
 N -4.76860802187500 5.28358380937500 7.32254193437500 
 S -5.57170302187500 0.809250809375002 5.73949693437500 
 S -5.62378102187500 4.85069480937500 6.04906893437500 
 S -2.38912002187500 1.00358780937500 3.24939793437500 
 S -2.38426602187500 4.89719080937500 3.27848893437500 
 S -3.29793402187500 1.58620080937500 7.28536393437500 
 S -3.15933302187500 5.46244080937500 7.17131093437500 
