16

 C -3.05118581875000 1.49152236562500 5.38896754375000 
 C -3.10902581875000 5.09485936562500 5.40492654375000 
 C -4.18148681875000 1.14661736562500 4.66498454375000 
 C -4.31788181875000 4.51162736562500 4.85150354375000 
 N -1.97468281875000 1.64992736562500 4.65084054375000 
 N -2.16037181875000 5.38099736562500 4.51621854375000 
 N -4.01317281875000 0.991132365624997 3.35273354375000 
 N -4.20587481875000 4.20336836562500 3.57001354375000 
 N -4.81566881875000 1.23396336562500 7.10178554375000 
 N -4.77139281875000 4.72767136562500 7.40765354375000 
 S -5.61755681875000 1.00508136562500 5.65859554375000 
 S -5.58080381875000 4.26418636562500 6.02928554375000 
 S -2.35371181875000 1.20672636562500 3.15496054375000 
 S -2.67016881875000 4.69043036562500 3.12639754375000 
 S -3.21315781875000 1.70486136562500 7.07338754375000 
 S -3.22655481875000 5.31324136562500 7.08679254375000 
