16

 C -2.82730530312500 1.66611056250000 5.76883185625000 
 C -3.30672130312500 5.36044756250000 5.44029985625000 
 C -4.13438030312500 1.46788656250000 5.11573985625000 
 C -4.53548530312500 4.89969956250000 4.86232385625000 
 N -1.84263830312500 1.78935956250000 4.86943685625000 
 N -2.35265630312500 5.53992956250000 4.52085485625000 
 N -4.13306530312500 1.39498956250000 3.77011785625000 
 N -4.52829430312500 4.86113756250000 3.55356885625000 
 N -4.63747530312500 1.59314856250000 7.66137285625000 
 N -4.98808830312500 5.09865656250000 7.37319585625000 
 S -5.49705030312500 1.43772256250000 6.27359885625000 
 S -5.81903630312500 4.52675456250000 6.01083985625000 
 S -2.49831530312500 1.66427356250000 3.37646885625000 
 S -3.02268430312500 5.33192356250000 3.05118485625000 
 S -2.99455630312500 1.63538156250000 7.55512285625000 
 S -3.46198330312500 5.69364556250000 7.15949785625000 
