16

 C -3.14497822187500 1.31022776875000 5.38086426250000 
 C -2.89363022187500 5.15212376875000 5.77402826250000 
 C -4.34210922187500 0.901720768749996 4.66905626250000 
 C -4.06905822187500 4.63154476875000 5.12051126250000 
 N -2.08316922187500 1.53660476875000 4.62763926250000 
 N -1.83999622187500 5.26474276875000 4.99617726250000 
 N -4.25610322187500 0.951607768749996 3.34983226250000 
 N -3.97364622187500 4.53345376875000 3.79072526250000 
 N -4.89494422187500 0.806451768749996 7.16598126250000 
 N -4.64058522187500 4.96955876875000 7.61176726250000 
 S -5.61368922187500 0.341518768749997 5.72951626250000 
 S -5.36330322187500 4.32382376875000 6.27604226250000 
 S -2.69096922187500 1.47284076875000 3.04250726250000 
 S -2.34894222187500 4.89399076875000 3.43275826250000 
 S -3.24489322187500 1.21879676875000 7.05420926250000 
 S -3.03201422187500 5.36173476875000 7.46511226250000 
