16

 C -3.17559350625000 1.11814474375000 5.52228923125000 
 C -3.22473250625000 4.65845274375000 5.62698023125000 
 C -4.30445550625000 0.687816743750001 4.73602223125000 
 C -4.51501550625000 4.39630374375000 5.04667723125000 
 N -2.06581750625000 1.44132674375000 4.81340023125000 
 N -2.25855550625000 4.77676174375000 4.74368823125000 
 N -4.15448550625000 0.813627743750001 3.41281523125000 
 N -4.50565550625000 4.44042174375000 3.71406323125000 
 N -5.05611350625000 0.306265743750001 7.14607023125000 
 N -4.96415350625000 4.69185674375000 7.56589723125000 
 S -5.67173950625000 8.195174375000125E-002 5.63946423125000 
 S -5.82238850625000 4.54192874375000 6.18025923125000 
 S -2.61066850625000 1.33468474375000 3.20870623125000 
 S -2.94956650625000 4.68237174375000 3.23445023125000 
 S -3.53421350625000 0.818312743750001 7.21049423125000 
 S -3.31601750625000 4.96357174375000 7.32119023125000 
