16

 C -3.07109974687500 1.66615773750000 5.45496346562500 
 C -3.53368974687500 5.14625273750000 5.50614446562500 
 C -4.16762774687500 1.07547873750000 4.72866646562500 
 C -4.68538974687500 4.49165973750000 4.96547446562500 
 N -2.00901574687500 2.01690173750000 4.72552346562500 
 N -2.57565074687500 5.55168373750000 4.63137146562500 
 N -3.94446274687500 0.847268737500001 3.42959646562500 
 N -4.54712874687500 4.25280873750000 3.67811646562500 
 N -4.72134374687500 0.867590737500001 7.28993546562500 
 N -5.18027774687500 4.62593473750000 7.47840046562500 
 S -5.50937674687500 0.634660737500000 5.83052446562500 
 S -5.95073474687500 4.06413073750000 6.09676646562500 
 S -2.44531374687500 1.52571473750000 3.17018146562500 
 S -3.08447274687500 4.90999773750000 3.15975146562500 
 S -3.36593574687500 1.85619973750000 7.21640146562500 
 S -3.84403274687500 5.50221373750000 7.22230746562500 
