16

 C -3.18997782812500 1.34760698750000 5.36157064062500 
 C -3.19860982812500 5.03244498750000 5.43000964062500 
 C -4.33371982812500 0.557638987500003 4.86483964062500 
 C -4.49301382812500 4.66784098750000 4.93403964062500 
 N -2.22649782812500 1.55716498750000 4.48501564062500 
 N -2.19661982812500 5.06255098750000 4.54302664062500 
 N -4.16741382812500 0.316554987500003 3.57105164062500 
 N -4.43918882812500 4.36857798750000 3.64189564062500 
 N -4.86841682812500 1.25178598750000 7.37176864062500 
 N -4.79408982812500 4.86548598750000 7.46723864062500 
 S -5.56609082812500 0.372793987500002 6.14156964062500 
 S -5.76458782812500 4.69698098750000 6.13411664062500 
 S -2.70492082812500 0.874660987500002 3.04413064062500 
 S -2.91694782812500 4.71021598750000 3.09193864062500 
 S -3.39959182812500 1.89548698750000 7.01223464062500 
 S -3.27336782812500 5.34530998750000 7.10205164062500 
