16

 C -2.86239028125000 1.55666374062500 5.46516192500000 
 C -3.46685328125000 5.14711174062500 5.18296292500000 
 C -4.02958728125000 1.00389974062500 4.77035692500000 
 C -4.56269728125000 4.29814874062500 4.65675192500000 
 N -1.81462328125000 1.64089974062500 4.66317392500000 
 N -2.36133928125000 5.14035274062500 4.47782792500000 
 N -3.91604328125000 0.894694740625004 3.44881392500000 
 N -4.36534828125000 3.97981574062500 3.38157492500000 
 N -4.79346228125000 1.43115274062500 7.17342092500000 
 N -5.32975728125000 5.13230374062500 6.93929592500000 
 S -5.39472928125000 0.796707740625004 5.76423092500000 
 S -5.94333428125000 4.09615274062500 5.77859792500000 
 S -2.34837428125000 1.12277174062500 3.13035592500000 
 S -2.75927228125000 4.39745074062500 3.01075092500000 
 S -3.21809328125000 1.99603474062500 7.05581392500000 
 S -3.85139428125000 5.76506774062500 6.71375692500000 
