16

 C -3.12269568750000 1.38699560312500 5.50757598750000 
 C -3.08838868750000 5.02528160312500 5.59374898750000 
 C -4.34438668750000 0.818063603125001 4.90540998750000 
 C -4.28871068750000 4.52705160312500 4.98676098750000 
 N -2.13375168750000 1.55081860312500 4.65514298750000 
 N -2.12960268750000 5.37190160312500 4.71256098750000 
 N -4.28866868750000 0.598638603125001 3.58172898750000 
 N -4.24412168750000 4.49667960312500 3.64344098750000 
 N -4.83932868750000 1.14787960312500 7.45185498750000 
 N -4.93218968750000 4.75511460312500 7.44603398750000 
 S -5.70830668750000 0.753592603125001 6.05389198750000 
 S -5.70501068750000 4.40016360312500 6.00749898750000 
 S -2.72201468750000 1.06545960312500 3.14714198750000 
 S -2.76203468750000 5.12777960312500 3.23125998750000 
 S -3.24415168750000 1.56935160312500 7.30142098750000 
 S -3.29097268750000 5.11404260312500 7.33676698750000 
