16

 C -3.22087040000000 1.26781390937500 5.72170414062500 
 C -3.18758340000000 5.27275590937500 5.56949514062500 
 C -4.49005940000000 1.07719090937500 5.09086114062500 
 C -4.40522040000000 4.82308390937500 4.92724214062500 
 N -2.17732540000000 1.32607890937500 4.89151114062500 
 N -2.23658340000000 5.61986190937500 4.68730214062500 
 N -4.47917840000000 0.846895909375003 3.79314314062500 
 N -4.25303740000000 4.56981690937500 3.62868114062500 
 N -4.94373740000000 1.40807190937500 7.61198414062500 
 N -4.99608040000000 5.05187490937500 7.42200814062500 
 S -5.77120140000000 1.10914190937500 6.18423914062500 
 S -5.70333440000000 4.51171690937500 5.96264814062500 
 S -2.88468740000000 0.951140909375003 3.38240914062500 
 S -2.70861040000000 5.06031090937500 3.21241014062500 
 S -3.31224240000000 1.46172190937500 7.45767714062500 
 S -3.28354140000000 5.43545390937500 7.34885214062500 
