16

 C -3.00632067187500 1.50465518125000 5.61854985000000 
 C -3.01380567187500 5.31534018125000 5.37612785000000 
 C -4.27496067187500 0.999881181250001 5.11063085000000 
 C -4.21862367187500 4.88143218125000 4.77044085000000 
 N -2.10551967187500 1.67500518125000 4.60466785000000 
 N -1.99962767187500 5.53649518125000 4.55337885000000 
 N -4.32379767187500 0.772206181250001 3.79554285000000 
 N -4.13300967187500 4.72644818125000 3.44267685000000 
 N -4.66387367187500 1.20349218125000 7.58293785000000 
 N -4.54504267187500 4.83990218125000 7.39178985000000 
 S -5.54074467187500 0.859153181250002 6.27241685000000 
 S -5.44433467187500 4.64215218125000 5.99495285000000 
 S -2.84927467187500 1.15978718125000 3.22376985000000 
 S -2.54122467187500 5.23698818125000 3.09293685000000 
 S -3.04765667187500 1.61288718125000 7.44726385000000 
 S -3.00638067187500 5.43247818125000 7.08798185000000 
