16

 C -3.11012094062500 1.37527997812500 5.41116884062500 
 C -3.42562094062500 5.27657697812500 5.36504984062500 
 C -4.38046894062500 1.03199697812500 4.81636684062500 
 C -4.60882394062500 4.58581297812500 4.79317784062500 
 N -2.18142994062500 1.48584297812500 4.48004284062500 
 N -2.48928794062500 5.56600597812500 4.48444584062500 
 N -4.40225194062500 0.774088978125003 3.54200284062500 
 N -4.49033894062500 4.35861897812500 3.47142684062500 
 N -4.73616494062500 1.17086197812500 7.44379684062500 
 N -4.81219694062500 4.55415597812500 7.36258084062500 
 S -5.62624194062500 0.933154978125002 6.05129284062500 
 S -5.79132694062500 4.21583797812500 6.07004184062500 
 S -2.83782994062500 0.928647978125002 3.06687784062500 
 S -3.04387494062500 4.95746997812500 3.01681584062500 
 S -3.10806494062500 1.57763397812500 7.14960784062500 
 S -3.38101694062500 5.21472897812500 7.06391284062500 
