16

 C -2.86228983125000 1.77795175312500 5.67253390000000 
 C -3.14263783125000 5.25221175312500 5.68228390000000 
 C -4.18183283125000 1.61659975312500 5.07729290000000 
 C -4.42592483125000 4.92014075312500 5.12150890000000 
 N -1.88100383125000 1.75862775312500 4.79298290000000 
 N -2.14095683125000 5.32928075312500 4.82684590000000 
 N -4.09089783125000 1.64719875312500 3.77218790000000 
 N -4.35543283125000 4.78368375312500 3.80231790000000 
 N -4.58360183125000 1.56781075312500 7.62729990000000 
 N -4.84188383125000 5.23950375312500 7.64330590000000 
 S -5.45531983125000 1.43262275312500 6.26853690000000 
 S -5.69032183125000 4.72897075312500 6.29504390000000 
 S -2.50287783125000 1.69044975312500 3.24742990000000 
 S -2.81211083125000 4.95744375312500 3.31815290000000 
 S -2.98293183125000 1.88501275312500 7.41137590000000 
 S -3.21106583125000 5.60675575312500 7.39584290000000 
