16

 C -3.01220451875000 1.25956998125000 5.65480788437500 
 C -3.18492851875000 5.34861398125000 5.36972188437500 
 C -4.15804751875000 0.701090981250002 5.01387388437500 
 C -4.18265951875000 4.36120498125000 4.93871488437500 
 N -1.99614451875000 1.50674798125000 4.84479888437500 
 N -2.20044251875000 5.54503598125000 4.51528588437500 
 N -4.04948851875000 0.531660981250002 3.73237688437500 
 N -4.00429751875000 3.89195698125000 3.71346188437500 
 N -4.89111051875000 1.01794198125000 7.43717188437500 
 N -4.93769451875000 5.14723998125000 7.22619188437500 
 S -5.51298851875000 0.384839981250002 6.02487988437500 
 S -5.51712651875000 4.10026298125000 6.05773988437500 
 S -2.42849851875000 0.938691981250002 3.39182588437500 
 S -2.56442451875000 4.52771798125000 3.20049588437500 
 S -3.26805951875000 1.60954498125000 7.34017388437500 
 S -3.50988351875000 5.90055998125000 6.93629988437500 
