16

 C -3.18518658125000 0.968917037500002 5.50878511875000 
 C -3.22919258125000 4.69513803750000 5.63395811875000 
 C -4.35513458125000 0.702826037500002 4.76414511875000 
 C -4.53039958125000 4.49272903750000 5.04230411875000 
 N -2.16827358125000 1.37468703750000 4.77026711875000 
 N -2.22542458125000 4.88797903750000 4.79692711875000 
 N -4.24155858125000 0.782129037500003 3.44953211875000 
 N -4.50121458125000 4.35108603750000 3.71185611875000 
 N -5.12531758125000 0.472905037500002 7.13275511875000 
 N -4.91781158125000 4.85695403750000 7.56576311875000 
 S -5.70473358125000 0.138792037500002 5.57744411875000 
 S -5.77860158125000 4.39686403750000 6.18953411875000 
 S -2.70878858125000 1.34197003750000 3.21446111875000 
 S -2.91897658125000 4.71711903750000 3.30726611875000 
 S -3.44819758125000 0.794897037500002 7.22169711875000 
 S -3.28379158125000 4.99016903750000 7.41560611875000 
