16

 C -3.28820409375000 0.997930793749997 5.63133984375000 
 C -2.91354109375000 5.07961379375000 5.56518784375000 
 C -4.45795809375000 0.513853793749997 4.92950684375000 
 C -4.13341509375000 4.63128779375000 4.95607484375000 
 N -2.20286509375000 1.11490079375000 4.87023984375000 
 N -1.85334409375000 5.24504379375000 4.75070884375000 
 N -4.29580909375000 0.451826793749997 3.63294384375000 
 N -4.00406309375000 4.47986179375000 3.65273884375000 
 N -5.20777809375000 0.999219793749996 7.32699884375000 
 N -4.71902309375000 4.79226479375000 7.40995184375000 
 S -5.80365009375000 0.316261793749997 5.91329784375000 
 S -5.44677209375000 4.27099479375000 5.98817684375000 
 S -2.68754509375000 0.868718793749997 3.31834784375000 
 S -2.48150009375000 4.78328179375000 3.24509284375000 
 S -3.55312009375000 1.26781779375000 7.30775484375000 
 S -3.15621609375000 5.35912779375000 7.28928884375000 
