16

 C -3.00639823125001 1.52815487812500 5.34977635312500 
 C -3.25297823125001 5.40388487812500 5.87859435312500 
 C -4.20260423125001 1.03330687812500 4.68564635312500 
 C -4.39853323125001 4.90518687812500 5.18018435312500 
 N -1.95745123125001 1.58416087812500 4.54276935312500 
 N -2.10570023125001 5.56656687812500 5.14083235312500 
 N -4.09782623125001 0.713669878124999 3.42366835312500 
 N -4.18996723125001 4.67428187812500 3.86190635312500 
 N -4.86056123125001 1.37202387812500 7.14083135312500 
 N -5.09940623125001 5.12637487812500 7.69270935312500 
 S -5.50687923125001 0.715789878124999 5.77534635312500 
 S -5.82936823125001 4.69866087812500 6.19245535312500 
 S -2.48706723125001 1.08919387812500 3.00659535312500 
 S -2.59427623125001 5.06182387812500 3.57527835312500 
 S -3.25106623125001 1.82626287812500 7.04909435312500 
 S -3.46410323125001 5.49710387812500 7.60756435312500 
