16

 C -2.97418088750000 1.49269948750000 5.27706135937500 
 C -3.08403988750000 5.21391148750000 5.48245735937500 
 C -4.16753488750000 0.896173487500000 4.71360835937500 
 C -4.23454888750000 4.64945648750000 4.92688435937500 
 N -1.93755188750000 1.62193348750000 4.48348835937500 
 N -2.09600488750000 5.34214948750000 4.64148535937500 
 N -3.94442388750000 0.677500487500001 3.41949935937500 
 N -4.08739988750000 4.25053848750000 3.66270435937500 
 N -4.44831588750000 1.11399448750000 7.35185335937500 
 N -4.87282088750000 4.92201848750000 7.40494235937500 
 S -5.35794288750000 0.630783487500000 6.06822435937500 
 S -5.60068688750000 4.34392148750000 5.92189335937500 
 S -2.46120088750000 1.20031848750000 2.97454535937500 
 S -2.61941788750000 4.64943548750000 3.19370335937500 
 S -2.98013988750000 1.75380448750000 7.00973835937500 
 S -3.30679288750000 5.43781248750000 7.21285035937500 
