16

 C -3.21065389375000 1.10131330937500 5.48457745625000 
 C -2.84572689375000 5.18682330937500 5.48741245625000 
 C -4.51889389375000 0.758228309374998 5.00737645625000 
 C -4.05925889375000 4.92576330937500 4.75046245625000 
 N -2.28926389375000 1.33212430937500 4.55076645625000 
 N -1.75531389375000 5.24450530937500 4.74220345625000 
 N -4.57868589375000 0.515848309374998 3.69544645625000 
 N -3.86693789375000 4.85913630937500 3.45866545625000 
 N -4.82995289375000 1.29388930937500 7.49884345625000 
 N -4.79487189375000 5.01569930937500 7.11067945625000 
 S -5.73728389375000 0.643244309374998 6.25501545625000 
 S -5.48755289375000 4.61841630937500 5.67308745625000 
 S -3.07239989375000 0.890799309374998 3.13927845625000 
 S -2.28024389375000 5.12613830937500 3.13297145625000 
 S -3.16343789375000 1.26659730937500 7.22451245625000 
 S -3.09739489375000 5.07675430937500 7.20228345625000 
