16

 C -2.85505975312499 1.28215381250000 5.76777630000000 
 C -3.03244975312499 4.64240181250000 5.49006430000000 
 C -4.08972575312499 1.09787681250000 5.10893630000000 
 C -4.25454775312499 4.34722881250000 4.74628630000000 
 N -1.76622075312499 1.23971381250000 4.93697530000000 
 N -1.85172275312499 4.69805581250000 4.86804230000000 
 N -4.01737975312499 1.07205881250000 3.75066730000000 
 N -3.94958875312499 4.18637381250000 3.44646030000000 
 N -4.85423375312499 1.60836681250000 7.48892230000000 
 N -5.03584875312499 4.89400781250000 7.14409530000000 
 S -5.50129075312499 1.24734481250000 5.99146830000000 
 S -5.74939975312499 4.34019481250000 5.83263530000000 
 S -2.45490875312499 1.08625981250000 3.40170430000000 
 S -2.27714075312499 4.38992881250000 3.28747730000000 
 S -3.12571075312499 1.57722681250000 7.52254930000000 
 S -3.35786075312499 5.08559981250000 7.16706730000000 
