16

 C -3.28217381562500 1.29846041250000 5.56781191875000 
 C -3.25720481562500 5.12037441250000 5.29367291875000 
 C -4.52230381562500 1.11720241249999 4.87000191875000 
 C -4.47478181562500 4.65229541250000 4.72638291875000 
 N -2.23335681562500 1.24031341249999 4.75654791875000 
 N -2.19807981562500 5.06797641249999 4.45459691875000 
 N -4.42782781562500 1.02396641249999 3.55538291875000 
 N -4.36381581562500 4.21583641249999 3.48267391875000 
 N -5.11044381562500 1.26282541250000 7.36225991875000 
 N -4.99078681562500 4.92676941250000 7.18512191875000 
 S -5.93286581562500 1.05702441250000 5.90478491875000 
 S -5.81635481562500 4.49491541250000 5.77191291875000 
 S -2.77064481562500 0.961513412499995 3.22136691875000 
 S -2.80660381562500 4.43623241250000 3.00387091875000 
 S -3.45814581562500 1.40427941250000 7.25126991875000 
 S -3.44245981562500 5.47302241250000 6.98330291875000 
