16

 C -3.00912817812500 1.41551995000000 5.52850750625000 
 C -3.21753517812500 5.03250095000000 5.40877950625000 
 C -4.19466317812500 0.900001950000002 4.77111850625000 
 C -4.44308017812500 4.50531995000000 4.90806950625000 
 N -1.96490517812500 1.64397395000000 4.75557550625000 
 N -2.21969517812500 5.16168395000000 4.55695150625000 
 N -3.99744117812500 0.661696950000001 3.47802550625000 
 N -4.41077617812500 4.29090995000000 3.59903550625000 
 N -4.99913417812500 1.35975295000000 7.18943850625000 
 N -4.90002117812500 5.21793295000000 7.31950950625000 
 S -5.65428717812500 0.884141950000002 5.70193150625000 
 S -5.73328017812500 4.47942595000000 6.07716350625000 
 S -2.42819917812500 1.05233195000000 3.21263350625000 
 S -2.85364917812500 4.63565095000000 3.08994850625000 
 S -3.38790217812500 1.87815895000000 7.16176150625000 
 S -3.31933017812500 5.55148695000000 7.00971550625000 
