16

 C -3.22608733125000 1.53421793437500 5.34978031250000 
 C -3.33993833125000 5.33310093437500 5.50472131250000 
 C -4.42678733125000 0.797467934374999 4.77621331250000 
 C -4.47275733125000 4.68524793437500 4.85926031250000 
 N -2.28216833125000 1.85388593437500 4.47134131250000 
 N -2.41217233125000 5.79526493437500 4.65828231250000 
 N -4.38008333125000 0.659626934374999 3.44781131250000 
 N -4.39523433125000 4.57031093437500 3.52279031250000 
 N -4.92069233125000 1.12948193437500 7.30235131250000 
 N -4.96888033125000 4.89854793437500 7.42821431250000 
 S -5.68171633125000 0.446861934374999 5.94974831250000 
 S -5.75073933125000 4.40376493437500 6.00512931250000 
 S -2.92548833125000 1.31301293437500 2.99043831250000 
 S -2.89632433125000 5.29990493437500 3.16466331250000 
 S -3.33907233125000 1.65890193437500 7.10022231250000 
 S -3.40065633125000 5.39099093437500 7.19686731250000 
