16

 C -3.30107568437500 1.24584231250000 5.52857140625000 
 C -3.28665768437500 5.03906131250000 5.16232840625000 
 C -4.55601568437500 1.06066131250000 4.81432740625000 
 C -4.46280068437500 4.44159331250000 4.59870240625000 
 N -2.22093668437500 1.24578131250000 4.72640640625000 
 N -2.25545368437500 5.19469531250000 4.30798840625000 
 N -4.49384068437500 0.952209312500000 3.48349040625000 
 N -4.32282668437500 4.08382431250000 3.30246140625000 
 N -5.18540468437500 1.16571631250000 7.34345140625000 
 N -4.96851068437500 4.89935531250000 7.07641840625000 
 S -5.89539868437500 0.806220312500000 5.91336540625000 
 S -5.82934068437500 4.48609031250000 5.70686840625000 
 S -2.86001368437500 1.08473931250000 3.18869240625000 
 S -2.71875968437500 4.53209931250000 2.91209540625000 
 S -3.55016668437500 1.44357931250000 7.29883940625000 
 S -3.37958168437500 5.35662831250000 6.89848640625000 
