16

 C -3.07722587500000 1.61796320937500 5.68006061562500 
 C -3.03803287500000 5.29981320937500 5.74952761562500 
 C -4.16562687500000 0.919247209375000 5.07503261562500 
 C -4.30229387500000 4.95081620937500 5.13599961562500 
 N -1.99300987500000 1.76579220937500 4.90857461562500 
 N -2.02192287500000 5.37015920937500 4.90578961562500 
 N -3.87776887500000 0.561984209375000 3.82945261562500 
 N -4.23888087500000 4.72821720937500 3.83801561562500 
 N -4.86200287500000 1.42446920937500 7.56987261562500 
 N -4.89282487500000 5.23051620937500 7.54196961562500 
 S -5.54054287500000 0.781809209375000 6.17262261562500 
 S -5.68680987500000 4.84151920937500 6.17531161562500 
 S -2.35057387500000 1.21405320937500 3.37392961562500 
 S -2.65118987500000 5.02815520937500 3.40378261562500 
 S -3.31699587500000 2.02490020937500 7.34920761562500 
 S -3.31495087500000 5.58343620937500 7.42834361562500 
