16

 C -2.93524145312500 1.32349124375000 5.78767779062500 
 C -3.16001845312500 4.73182524375000 5.55893079062500 
 C -4.12017345312500 1.14926924375000 5.02969479062500 
 C -4.30243645312500 4.34159824375000 4.77578179062500 
 N -1.84344545312500 1.47346324375000 4.99074479062500 
 N -2.02532345312500 4.77975424375000 4.91298979062500 
 N -3.95450345312500 1.06439224375000 3.66077279062500 
 N -3.97091645312500 4.08275024375000 3.50452979062500 
 N -4.87599245312500 1.54857824375000 7.43017279062500 
 N -5.12720145312500 4.90589024375000 7.18631879062500 
 S -5.55714245312500 1.15866924375000 5.99371979062500 
 S -5.71551345312500 4.34523024375000 5.70397179062500 
 S -2.32458445312500 1.23068024375000 3.41500779062500 
 S -2.33389145312500 4.35337324375000 3.36296679062500 
 S -3.27661245312500 1.55052824375000 7.48955279062500 
 S -3.46542845312500 5.01490524375000 7.22828379062500 
