16

 C -3.37159781250000 1.35558559375000 5.54879309687500 
 C -2.87402581250000 5.26322359375000 5.45235309687500 
 C -4.44664981250000 0.614572593750004 4.94470609687500 
 C -4.14059281250000 4.91551559375000 4.83508409687500 
 N -2.40125581250000 1.74295459375000 4.71344409687500 
 N -1.85883281250000 5.33087859375000 4.56658809687500 
 N -4.26957081250000 0.386005593750004 3.61342309687500 
 N -4.14409781250000 4.76742859375000 3.46795009687500 
 N -5.16024781250000 1.21527559375000 7.43731509687500 
 N -4.76253181250000 5.06553259375000 7.30592209687500 
 S -5.76469881250000 0.283286593750003 6.14177009687500 
 S -5.46662281250000 4.75158459375000 5.89577009687500 
 S -2.76211981250000 1.01294659375000 3.27878009687500 
 S -2.55701181250000 4.98708159375000 3.10016009687500 
 S -3.59749381250000 1.86486159375000 7.16419809687500 
 S -3.15782981250000 5.40276959375000 7.23653309687500 
