16

 C -3.23871478750000 1.31650108750000 5.51066495625000 
 C -3.21810778750000 5.13599808750000 5.32689595625000 
 C -4.54310478750000 1.14000208750000 4.84694195625000 
 C -4.48012078750000 4.68975508750000 4.76585895625000 
 N -2.12188378750000 1.21993308750000 4.76149095625000 
 N -2.20605078750000 4.97683908750000 4.49842295625000 
 N -4.41145978750000 0.954242087499996 3.52322195625000 
 N -4.43120678750000 4.28906908750000 3.49196195625000 
 N -5.07150778750000 1.29495008750000 7.33230895625000 
 N -4.99828378750000 4.96411308750000 7.21585995625000 
 S -5.92565078750000 1.18843508750000 5.92190695625000 
 S -5.77539678750000 4.48490608750000 5.83669095625000 
 S -2.74675578750000 0.951398087499996 3.28728895625000 
 S -2.80936278750000 4.44319308749999 3.10790195625000 
 S -3.40410778750000 1.39429008750000 7.25227695625000 
 S -3.47486778750000 5.52411508750000 7.02338495625000 
