16

 C -3.18677520000000 1.46376664375000 5.63685971562500 
 C -3.09051220000000 5.17759664375000 5.50862871562500 
 C -4.40943020000000 1.25147764375000 4.82653571562500 
 C -4.36087820000000 4.88895864375000 4.82661771562500 
 N -2.14431520000000 1.90817164375000 4.92516671562500 
 N -2.09452820000000 5.39273664375000 4.67969471562500 
 N -4.22494420000000 1.33610464375000 3.51410471562500 
 N -4.21040320000000 4.72009964375000 3.51959571562500 
 N -5.05762920000000 1.00313964375000 7.30908571562500 
 N -4.80708020000000 5.31956964375000 7.38782971562500 
 S -5.80013020000000 0.802224643750002 5.86565971562500 
 S -5.60138520000000 4.69455164375000 5.99376671562500 
 S -2.60910720000000 1.75295564375000 3.31156571562500 
 S -2.61167920000000 5.03912564375000 3.14192871562500 
 S -3.40255720000000 1.14393264375000 7.30087371562500 
 S -3.09288720000000 5.44522464375000 7.24212971562500 
