16

 C -3.23191923437500 0.976566681249998 5.40139463750000 
 C -3.12694023437500 4.57632768125000 5.56078563750000 
 C -4.41907223437500 0.542492681249998 4.79016363750000 
 C -4.41984723437500 4.72385768125000 4.92714163750000 
 N -2.25017623437500 1.33546968125000 4.62284563750000 
 N -2.13394823437500 4.39970468125000 4.66571163750000 
 N -4.25843123437500 0.531418681249997 3.46981063750000 
 N -4.41311223437500 4.73395568125000 3.61458563750000 
 N -4.83413223437500 0.528885681249998 7.34907563750000 
 N -4.87119523437500 4.82502668125000 7.49529563750000 
 S -5.67118823437500 0.198945681249998 5.94625263750000 
 S -5.71694123437500 4.74354968125000 6.04948263750000 
 S -2.83371223437500 1.19421268125000 3.08244063750000 
 S -2.90942423437500 4.45882668125000 3.12324263750000 
 S -3.19270723437500 0.936644681249998 7.11436763750000 
 S -3.20360823437500 4.85802768125000 7.28288663750000 
