16

 C -3.36467133437500 1.21424263124999 5.47339290625000 
 C -3.21649233437501 5.00392163124999 5.33156190625000 
 C -4.46330033437501 0.664197631249992 4.77752090625000 
 C -4.44192733437500 4.61211763124999 4.61744990625000 
 N -2.30730333437501 1.35926663124999 4.65139790625000 
 N -2.12761533437501 5.00682463124999 4.60524490625000 
 N -4.36955433437500 0.445974631249993 3.47581490625000 
 N -4.18660233437500 4.31345763124999 3.37377490625000 
 N -5.36986933437501 1.12643263124999 7.13130190625000 
 N -4.99070633437501 5.06699063124999 7.17265290625000 
 S -5.87996933437501 0.402424631249993 5.72707590625000 
 S -5.82904133437501 4.81225363124999 5.76769490625000 
 S -2.82046133437500 0.910980631249993 3.07545590625000 
 S -2.56137833437500 4.56210263124999 3.03313890625000 
 S -3.72709833437500 1.50286263124999 7.15531990625000 
 S -3.30073033437501 5.55568863124999 6.92271190625000 
