16

 C -3.14102985312500 1.60699721875000 5.47663330625000 
 C -3.63905385312500 4.88377021875000 5.03368930625000 
 C -4.26213285312500 0.778371218749999 4.98925130625000 
 C -4.77046685312500 4.27338821875000 4.40511430625000 
 N -2.15722485312500 1.81570521875000 4.60969330625000 
 N -2.62777385312500 5.21666321875000 4.23241830625000 
 N -4.00485485312500 0.324860218749999 3.74369830625000 
 N -4.50548285312500 3.97345321875000 3.12775530625000 
 N -4.88241085312500 1.37469221875000 7.42359730625000 
 N -5.40874485312500 4.70840821875000 6.85920730625000 
 S -5.53755985312500 0.476615218749999 6.18142130625000 
 S -6.01561685312500 3.83990721875000 5.54487930625000 
 S -2.60868085312500 1.11284021875000 3.15222330625000 
 S -3.03643685312500 4.59031521875000 2.72975530625000 
 S -3.38949585312500 2.03167421875000 7.12379130625000 
 S -3.84182985312500 5.23194821875000 6.72707730625000 
