16

 C -3.01728756875000 1.24065594375000 5.31763618437500 
 C -2.87542756875000 5.12202994375000 5.62303218437500 
 C -4.13042156875000 0.714168943750000 4.67213818437500 
 C -4.13114756875000 4.60620794375000 5.15044218437500 
 N -1.97510056875000 1.52099294375000 4.55424718437500 
 N -1.97265456875000 5.35568694375000 4.67769218437500 
 N -3.93323056875000 0.634486943750000 3.37442418437500 
 N -4.12146856875000 4.38695994375000 3.81673418437500 
 N -4.69298956875000 0.719495943750000 7.12660118437500 
 N -4.38766056875000 4.84056894375000 7.76664518437500 
 S -5.45995056875000 0.287240943750001 5.69543918437500 
 S -5.32021256875000 4.43597294375000 6.43259218437500 
 S -2.40995256875000 1.15439994375000 2.98929018437500 
 S -2.67030456875000 4.79963494375000 3.23281018437500 
 S -3.16099956875000 1.38253494375000 7.03232318437500 
 S -2.82534056875000 5.28920694375000 7.40381918437500 
