16

 C -3.27709271875000 1.49580807812500 5.20792245000000 
 C -3.08311771875000 5.09971007812500 5.41309945000000 
 C -4.48415071875000 1.00153807812500 4.52652145000000 
 C -4.27255671875000 4.64693207812500 4.74252845000000 
 N -2.15056371875000 1.53018507812500 4.47183745000000 
 N -2.01120271875000 5.10297507812500 4.63397645000000 
 N -4.25066971875000 0.620368078124997 3.26746545000000 
 N -4.06151971875000 4.03690807812500 3.55960045000000 
 N -5.10456571875000 1.03112407812500 7.02314145000000 
 N -4.86053871875000 4.91592007812500 7.28282745000000 
 S -5.81712671875000 0.555603078124998 5.60032245000000 
 S -5.64280171875000 4.46338207812500 5.89412345000000 
 S -2.64974271875000 0.861787078124998 3.00383145000000 
 S -2.41542271875000 4.21934507812500 3.26561045000000 
 S -3.58643071875000 1.70798407812500 6.93506445000000 
 S -3.30819571875000 5.49495807812500 7.13306145000000 
