16

 C -3.22339607500000 1.07909103125000 5.43968683437500 
 C -2.83923807500000 5.13041803125000 5.43918783437500 
 C -4.50460807500000 0.662610031249999 4.93074283437500 
 C -3.98639107500000 4.73999703125000 4.67495583437500 
 N -2.22897307500000 1.18832503125000 4.54231183437500 
 N -1.73067507500000 5.33785603125000 4.73085283437500 
 N -4.54936107500000 0.462235031249999 3.58505583437500 
 N -3.81280107500000 4.85354903125000 3.35727883437500 
 N -4.80844007500000 1.33647203125000 7.45224283437500 
 N -4.76362707500000 5.05562003125000 7.18271483437500 
 S -5.69969507500000 0.645394031249999 6.23145283437500 
 S -5.39030407500000 4.66394303125000 5.70664583437500 
 S -3.00004407500000 0.819524031249999 3.10517183437500 
 S -2.16798907500000 5.16631703125000 3.11643283437500 
 S -3.14160507500000 1.36451703125000 7.17362183437500 
 S -3.09774407500000 5.16791303125000 7.19322783437500 
