16

 C -3.22021652500000 1.53559873437499 5.48510610000000 
 C -3.16714552500000 5.20558473437499 5.89837510000000 
 C -4.44065352500000 1.10476473437499 4.81174710000000 
 C -4.44386052500000 4.99010373437499 5.30070010000000 
 N -2.21801852500000 1.81317673437499 4.66749310000000 
 N -2.07545952500000 5.29201873437500 5.10922910000000 
 N -4.37534652500000 1.07436373437499 3.49582010000000 
 N -4.33617352500000 4.83022873437499 3.94458510000000 
 N -5.03814252500000 0.986415734374996 7.31874610000000 
 N -4.79457452500000 5.08977773437499 7.81691410000000 
 S -5.74147952500000 0.710157734374995 5.83779510000000 
 S -5.75162552500000 5.00617073437500 6.52100310000000 
 S -2.80353152500000 1.44820973437499 3.06687410000000 
 S -2.74522652500000 5.05478373437500 3.57339910000000 
 S -3.43478252500000 1.51520673437500 7.23289610000000 
 S -3.16485552500000 5.38594773437499 7.60858910000000 
