16

 C -2.99741892187500 1.32938395625000 5.64226751250000 
 C -3.19321492187500 5.24254695625000 5.36430051250000 
 C -4.17769792187500 0.752396956249999 5.00799051250000 
 C -4.17641892187500 4.28311795625000 4.97570751250000 
 N -1.88838992187500 1.44744295625000 4.90299451250000 
 N -2.16599292187500 5.43539895625000 4.50023451250000 
 N -3.98085292187500 0.538081956249999 3.68827251250000 
 N -3.97978592187500 3.89573695625000 3.69920751250000 
 N -4.79718492187500 0.990782956249999 7.48392351250000 
 N -4.91072892187500 5.17010395625000 7.27437551250000 
 S -5.54770292187500 0.493804956250000 6.07172751250000 
 S -5.48470392187500 4.09703395625000 6.06566251250000 
 S -2.44769792187500 0.971854956250000 3.38071251250000 
 S -2.51258392187500 4.50671095625000 3.22168451250000 
 S -3.30654492187500 1.56668595625000 7.27499551250000 
 S -3.39384892187500 5.93231295625000 6.94856851250000 
