16

 C -3.03291718437500 1.66433449062500 5.61352239375000 
 C -3.06277518437500 5.37309549062500 5.59509439375000 
 C -4.11514118437500 0.977268490625003 5.00317039375000 
 C -4.27794018437500 4.88682449062500 4.96541139375000 
 N -1.99172818437500 1.79654349062500 4.82299839375000 
 N -2.04908618437500 5.38607349062500 4.74404839375000 
 N -3.97016618437500 0.740933490625004 3.71590139375000 
 N -4.20553918437500 4.56468649062500 3.66974239375000 
 N -4.70904118437500 1.49020849062500 7.46783739375000 
 N -4.85417818437500 5.35874549062500 7.41280839375000 
 S -5.43750218437500 0.775578490625003 6.11477239375000 
 S -5.64637618437500 4.90457049062500 6.02626839375000 
 S -2.37313918437500 1.27818349062500 3.32047739375000 
 S -2.61415618437500 5.00963349062500 3.21856239375000 
 S -3.20638518437500 2.11371449062500 7.24328639375000 
 S -3.24142218437500 5.74430949062500 7.28500139375000 
