16

 C -2.81578019062500 1.95627311562500 5.56393353750000 
 C -3.12711419062500 5.29426411562500 5.67790353750000 
 C -4.12928319062500 1.53723511562500 5.00669253750000 
 C -4.37034619062500 4.80435311562500 5.13017153750000 
 N -1.85072319062500 1.89836611562500 4.65851453750000 
 N -2.12734619062500 5.37125311562500 4.81524453750000 
 N -4.08922019062500 1.21739711562500 3.71132053750000 
 N -4.32683219062500 4.55928311562500 3.83750453750000 
 N -4.46066919062500 1.45866011562500 7.49868453750000 
 N -4.94461319062500 5.10867411562500 7.61435153750000 
 S -5.42995419062500 1.53202311562500 6.14113953750000 
 S -5.74183619062500 4.68230711562500 6.20854953750000 
 S -2.60216419062500 1.57782611562500 3.18028753750000 
 S -2.80194719062500 4.89314711562500 3.30794053750000 
 S -2.86843519062500 1.95390611562500 7.31639853750000 
 S -3.27584819062500 5.35041011562500 7.39383353750000 
