16

 C -3.20623604687500 1.56547049375000 5.49787422500000 
 C -2.98883604687500 5.06357649375000 5.70742022500000 
 C -4.47544404687500 1.17686149375000 4.96582722500000 
 C -4.26621304687500 4.77440249375000 5.02485622500000 
 N -2.31029504687500 1.76384249375000 4.51843522500000 
 N -1.96940404687500 5.22076949375000 4.82055222500000 
 N -4.55033604687500 0.945425493750003 3.68929222500000 
 N -4.15792904687500 4.49163349375000 3.70092622500000 
 N -4.79123504687500 1.21780949375000 7.49898122500000 
 N -4.79641104687500 5.11556849375000 7.45651922500000 
 S -5.75980804687500 0.973652493750002 6.09012922500000 
 S -5.55884604687500 4.54115849375000 6.12274822500000 
 S -3.06537604687500 1.43219749375000 3.11135822500000 
 S -2.61258104687500 4.89624249375000 3.28206922500000 
 S -3.25220704687500 1.71916549375000 7.18988522500000 
 S -3.18293604687500 5.44876749375000 7.40416622500000 
