16

 C -3.17565305312501 1.15546238437500 5.18748383437500 
 C -3.22898605312501 4.99980138437500 5.52137083437500 
 C -4.49751305312501 0.830643384374999 4.65409683437500 
 C -4.52957305312501 4.61891538437500 4.94193183437500 
 N -2.22897805312501 1.14012738437500 4.28053583437500 
 N -2.29280105312501 5.20205338437500 4.58772983437500 
 N -4.52682205312501 0.715213384374999 3.33361883437500 
 N -4.53739505312501 4.53647838437500 3.58500483437500 
 N -4.85503805312501 1.40627338437500 7.07219283437500 
 N -4.85012905312501 4.91810538437500 7.58295283437500 
 S -5.77866305312501 0.829515384374999 5.87632783437500 
 S -5.78613005312501 4.45338638437500 6.15483883437500 
 S -2.93777805312501 0.815069384375000 2.85785683437500 
 S -2.98425805312501 4.94558938437500 3.14224983437500 
 S -3.21423305312501 1.64729138437500 6.89352083437500 
 S -3.23164205312501 5.25411738437500 7.25255483437500 
