16

 C -3.32745868750001 1.11050455312500 5.48276755312500 
 C -3.28789268750001 5.17227555312500 5.29042155312500 
 C -4.53473068750001 0.778786553124998 4.72231455312500 
 C -4.33819868750001 4.47173255312500 4.56334855312500 
 N -2.22242068750001 1.13440755312500 4.72909555312500 
 N -2.31201768750001 5.68887855312500 4.53946255312500 
 N -4.32369068750001 0.680393553124999 3.40245555312500 
 N -4.19399368750001 4.50068555312500 3.24310455312500 
 N -5.15925468750001 0.805599553124998 7.22991255312500 
 N -5.08112868750001 4.65801755312500 7.08610155312500 
 S -5.87759968750001 0.407653553124998 5.77350055312500 
 S -5.55029768750001 3.87665155312500 5.71278355312500 
 S -2.71606768750001 0.930960553124998 3.12839755312500 
 S -2.76029768750001 5.26442055312500 2.99829455312500 
 S -3.54768868750001 1.10414755312500 7.17918455312500 
 S -3.58690368750001 5.34311355312500 7.00593355312500 
