16

 C -2.95272613750000 1.90874772812500 5.41766461875000 
 C -3.60972913750000 5.16138272812500 5.53804061875000 
 C -4.02132413750000 1.14114172812500 4.75403961875000 
 C -4.73421513750000 4.51928472812500 4.88443361875000 
 N -1.92141413750000 2.22245872812500 4.61085761875000 
 N -2.64063913750000 5.58420472812500 4.75175761875000 
 N -3.83666113750000 0.897046728125002 3.45751561875000 
 N -4.46348413750000 4.24878072812500 3.61562661875000 
 N -4.60895613750000 1.07338472812500 7.26391361875000 
 N -5.26741713750000 4.76552472812500 7.38230961875000 
 S -5.21965013750000 0.442765728125002 5.82780661875000 
 S -5.83772413750000 3.93732972812500 6.00442061875000 
 S -2.34934413750000 1.48708572812500 3.15003061875000 
 S -3.02917213750000 5.00660272812500 3.24951461875000 
 S -3.14563713750000 1.87622872812500 7.16365861875000 
 S -3.75723313750000 5.40388572812500 7.24930061875000 
