16

 C -2.90154828750000 1.42832047499999 5.73650511562500 
 C -3.17476528750000 4.71741047499999 5.61464411562500 
 C -4.17976828750000 1.19452547499999 5.09203511562500 
 C -4.43777728750000 4.60063347499999 4.96039211562500 
 N -1.83241828750000 1.46508447499999 4.94069511562500 
 N -2.08945228750000 4.71218947499999 4.79584211562500 
 N -4.10223228750000 1.06318947499999 3.76857611562500 
 N -4.38306828750000 4.66172847499999 3.62974311562500 
 N -4.70278628750000 1.49530347499999 7.64806111562500 
 N -4.99835528750000 4.64983647499999 7.47721111562500 
 S -5.53841428750000 1.24990647499999 6.25599911562500 
 S -5.80002828750000 4.43381147499999 6.05662711562500 
 S -2.50725928750000 1.28649447499999 3.39909311562500 
 S -2.74314728750000 4.73192747499999 3.27624711562500 
 S -3.02791328750000 1.63059447499999 7.53752111562500 
 S -3.39305028750000 4.97432147499999 7.34283311562500 
