16

 C -3.66492550000000 1.10543354062500 5.54031073125000 
 C -3.00655650000000 4.97925254062500 5.40189373125000 
 C -4.81263450000000 0.604539540625002 4.85945473125000 
 C -4.22290450000000 4.43241554062500 4.85195373125000 
 N -2.60847550000000 1.47803954062500 4.81271973125000 
 N -1.99447750000000 5.21709954062500 4.56072873125000 
 N -4.55746150000000 0.364928540625002 3.57596073125000 
 N -4.04923450000000 4.16297454062500 3.57404373125000 
 N -5.34528550000000 0.543611540625002 7.44863573125000 
 N -4.65778250000000 4.83371754062500 7.32868073125000 
 S -6.08674150000000 0.229851540625002 6.03683873125000 
 S -5.54432150000000 4.38465554062500 6.01226973125000 
 S -3.00450050000000 0.932727540625002 3.31136573125000 
 S -2.49428350000000 4.63164454062500 3.11692073125000 
 S -3.80950050000000 1.15888654062500 7.32460773125000 
 S -3.12388450000000 5.38145154062500 7.07211573125000 
