16

 C -3.29323252187500 1.42333529062500 5.78647030937500 
 C -2.90536752187500 4.95641729062500 5.62001030937500 
 C -4.58832652187500 0.978311290624997 5.30850030937500 
 C -4.15433952187500 4.57557729062500 4.99858730937500 
 N -2.26103352187500 1.37419329062500 4.97198030937500 
 N -1.93759452187500 5.14208029062500 4.76516030937500 
 N -4.46608252187500 0.560906290624996 4.01992130937500 
 N -4.09744952187500 4.54239929062500 3.68904230937500 
 N -4.76854852187500 1.50787229062500 7.86380330937500 
 N -4.84638452187500 4.73225629062500 7.40307530937500 
 S -5.79368852187500 1.15620129062500 6.56605730937500 
 S -5.51867952187500 4.41215429062500 5.96061430937500 
 S -2.89944652187500 0.926566290624996 3.52476230937500 
 S -2.57510252187500 4.89783329062500 3.21269830937500 
 S -3.13696352187500 1.69961929062500 7.41918330937500 
 S -3.17757252187500 5.01634629062500 7.41967430937500 
