16

 C -3.08875979375000 1.29242380625000 5.23790935312500 
 C -3.16541079375000 5.11705180625000 5.61605235312500 
 C -4.41648379375000 0.927064806249997 4.72207835312500 
 C -4.43144579375000 4.71840580625000 5.08394535312500 
 N -2.09729379375000 1.15265280625000 4.36529435312500 
 N -2.20718379375000 5.32275180625000 4.73803135312500 
 N -4.38605479375000 0.596478806249998 3.42836335312500 
 N -4.44973379375000 4.57289080625000 3.76837335312500 
 N -4.80085579375000 1.58967280625000 7.13543235312500 
 N -4.90742679375000 4.86951280625000 7.63757335312500 
 S -5.70887179375000 0.995361806249998 5.93460235312500 
 S -5.68852279375000 4.50250080625000 6.20195935312500 
 S -2.82812879375000 0.840195806249997 2.89498535312500 
 S -2.88836479375000 4.98310080625000 3.28925235312500 
 S -3.17210279375000 1.73671080625000 6.93733735312500 
 S -3.27958579375000 5.22037480625000 7.35603735312500 
