16

 C -3.30656261562501 1.40829960937500 5.74231322187500 
 C -2.93099261562501 4.99929760937500 5.61087422187500 
 C -4.59946561562501 1.06008160937500 5.28511222187500 
 C -4.14354261562501 4.66786360937500 4.93369522187500 
 N -2.25065861562501 1.32953560937500 4.92728222187500 
 N -1.86617961562501 5.09586360937500 4.73961122187500 
 N -4.44621161562501 0.585704609374998 4.04590922187500 
 N -4.12210461562501 4.58515760937500 3.60487922187500 
 N -4.72406661562501 1.58774960937500 7.80136222187500 
 N -4.79155761562501 4.73047860937500 7.49967522187500 
 S -5.77349361562501 1.15388960937500 6.60245422187500 
 S -5.49297561562501 4.37873560937500 5.92176422187500 
 S -2.92602361562501 0.841487609374997 3.52120922187500 
 S -2.58422961562501 4.84126960937500 3.21087422187500 
 S -3.13712161562501 1.68966160937500 7.42113822187500 
 S -3.16946361562501 4.96501960937500 7.38322722187500 
