16

 C -3.29131171250000 1.47435191250000 5.50672568437500 
 C -3.24844671250000 5.00779191250000 5.16340468437500 
 C -4.52930671250000 0.989408912499999 4.94854168437500 
 C -4.29304071250000 4.14561491250000 4.62729468437500 
 N -2.28253271250000 1.53213691250000 4.63314068437500 
 N -2.25115371250000 5.20362591250000 4.29278368437500 
 N -4.46066471250000 0.760308912499998 3.63007568437500 
 N -4.19210471250000 3.90243991250000 3.31235568437500 
 N -4.98857771250000 1.46633191250000 7.46569068437500 
 N -5.02773271250000 4.84780091250000 7.04650168437500 
 S -5.77722071250000 0.898457912499999 6.16922468437500 
 S -5.63521271250000 4.03714391250000 5.74495568437500 
 S -2.90341771250000 1.07456891250000 3.15567368437500 
 S -2.77106371250000 4.65790791250000 2.81572068437500 
 S -3.44465571250000 1.73116591250000 7.23554668437500 
 S -3.55080371250000 5.57788091250000 6.82561768437500 
