16

 C -3.11181742500000 1.51986531250000 5.60025013125000 
 C -2.95135042500000 5.34320531250000 5.43228313125000 
 C -4.35897842500000 0.995701312500004 5.06438713125000 
 C -4.17162042500000 4.88950931250000 4.83707513125000 
 N -2.17885242500000 1.62934931250000 4.69143413125000 
 N -1.95679942500000 5.58841531250000 4.54478813125000 
 N -4.30354642500000 0.613268312500003 3.81206913125000 
 N -4.12007342500000 4.75211031250000 3.50720513125000 
 N -4.59368942500000 1.16469431250000 7.65201813125000 
 N -4.54271042500000 4.89612831250000 7.30560013125000 
 S -5.57080042500000 0.796918312500003 6.29777013125000 
 S -5.45761942500000 4.65082231250000 5.97131813125000 
 S -2.81348542500000 1.13202431250000 3.21131313125000 
 S -2.63472342500000 5.23437931250000 2.98927113125000 
 S -3.03756142500000 1.60696031250000 7.31194413125000 
 S -2.98013342500000 5.40952931250000 7.20867013125000 
