16

 C -3.21699036875000 1.42512467187500 5.66521541250000 
 C -3.35076636875000 5.12959767187500 5.39332441250000 
 C -4.37565636875000 0.816411671874998 4.95627441250000 
 C -4.55869636875000 4.68944167187500 4.76557741250000 
 N -2.17744436875000 1.68213767187500 4.85693441250000 
 N -2.29836336875000 5.40786467187500 4.60096941250000 
 N -4.18669636875000 0.771549671874998 3.63507741250000 
 N -4.44120736875000 4.79341967187500 3.45198241250000 
 N -5.07132936875000 1.18874367187500 7.37548941250000 
 N -5.09392836875000 4.87098867187500 7.29872941250000 
 S -5.71798536875000 0.594525671874997 5.96828941250000 
 S -5.89429636875000 4.40947267187500 5.89478641250000 
 S -2.63834836875000 1.17569667187500 3.38120941250000 
 S -2.85977636875000 5.17402667187500 3.08270041250000 
 S -3.48882036875000 1.59893167187500 7.36949541250000 
 S -3.49924336875000 5.27425267187500 7.09045941250000 
