16

 C -3.28661037812501 0.916436690625002 5.40013978437500 
 C -3.22092437812501 4.99340369062500 5.59424678437500 
 C -4.55095237812501 0.697262690625001 4.74772678437500 
 C -4.48249637812501 4.57390169062500 4.95238978437500 
 N -2.20789937812501 1.11751269062500 4.60686978437500 
 N -2.27432137812501 5.22630469062500 4.73387278437500 
 N -4.51300137812501 0.782652690625001 3.40573178437500 
 N -4.38081837812501 4.36426469062500 3.64203678437500 
 N -5.01505937812501 0.608452690625001 7.33270278437500 
 N -5.00633137812501 4.58657169062500 7.44242678437500 
 S -5.87328037812501 0.393276690625001 5.90821878437500 
 S -5.87099837812501 4.43166569062500 5.99746178437500 
 S -2.82369037812501 0.976126690625001 3.09253678437500 
 S -2.81291137812501 4.89496369062500 3.22587878437500 
 S -3.36403937812501 0.800666690625001 7.14851978437500 
 S -3.33135137812501 4.82538269062500 7.32797078437500 
