16

 C -3.19436435000000 1.38978237500000 5.36324785625000 
 C -3.21144735000000 5.30472937500000 5.71013185625000 
 C -4.30025135000000 0.657733375000002 4.86074885625000 
 C -4.38346735000000 4.74292837500000 5.08956285625000 
 N -2.21697835000000 1.51220937500000 4.50314785625000 
 N -2.15586735000000 5.38803937500000 4.89786785625000 
 N -4.09145935000000 0.163917375000002 3.64225485625000 
 N -4.21785035000000 4.49352037500000 3.77390985625000 
 N -5.01948235000000 1.59209037500000 7.17854885625000 
 N -5.02456135000000 5.05001637500000 7.57876485625000 
 S -5.69589235000000 0.693243375000002 5.91505885625000 
 S -5.66065635000000 4.52841637500000 6.14584285625000 
 S -2.63288735000000 0.625053375000002 3.12643885625000 
 S -2.69892435000000 4.89352437500000 3.37554385625000 
 S -3.43685835000000 2.06397137500000 6.94107985625000 
 S -3.51364635000000 5.74146937500000 7.35071385625000 
