16

 C -3.14262044062500 1.58142613437500 5.66312229375000 
 C -2.90495444062500 5.14369913437500 5.42869229375000 
 C -4.39334044062500 1.19230613437500 5.04927929375000 
 C -4.20317144062500 4.81568913437500 4.79584829375000 
 N -2.10983844062500 1.74875913437500 4.77714629375000 
 N -1.90946944062500 5.35979513437500 4.61103129375000 
 N -4.39048344062500 1.14465613437500 3.71584329375000 
 N -4.09675644062500 4.77563713437500 3.47967029375000 
 N -5.01616144062500 1.45433013437500 7.49325629375000 
 N -4.62933544062500 5.13230913437500 7.37605229375000 
 S -5.74193344062500 1.00879413437500 6.08946629375000 
 S -5.53992044062500 4.60420113437500 6.00055629375000 
 S -2.83207644062500 1.40369513437500 3.29318729375000 
 S -2.47755744062500 5.09420913437500 3.12240629375000 
 S -3.43503244062500 1.86801713437500 7.41716829375000 
 S -3.00852444062500 5.28679213437500 7.15519129375000 
