16

 C -3.73788037187500 1.09936534375000 5.63011139687500 
 C -3.05447237187500 5.02067934375000 5.31979239687500 
 C -4.83104637187500 0.530962343750002 4.94443339687500 
 C -4.28789337187500 4.40350334375000 4.83837739687500 
 N -2.73312137187500 1.53417234375000 4.86098839687500 
 N -2.04576737187500 5.12101834375000 4.45702039687500 
 N -4.67911537187500 0.532108343750002 3.61120639687500 
 N -4.21259937187500 4.23357934375000 3.51811939687500 
 N -5.58969637187500 0.663036343750002 7.42344739687500 
 N -4.74725937187500 5.00354734375000 7.30166839687500 
 S -6.18487837187500 0.172085343750002 5.98672739687500 
 S -5.55789637187500 4.25179734375000 6.06313839687500 
 S -3.12906537187500 1.11506634375000 3.27262939687500 
 S -2.67680537187500 4.50254334375000 3.00126039687500 
 S -4.05811337187500 1.18515334375000 7.41729839687500 
 S -3.17128537187500 5.45470334375000 6.99709439687500 
