16

 C -2.97233524375000 1.03454958750000 5.82171078750000 
 C -3.22347424375000 4.94424758750000 5.56176278750000 
 C -4.20480224375000 0.672153587500000 5.18443878750000 
 C -4.37302824375000 4.43207458750000 4.90178778750000 
 N -1.94839524375000 1.16829358750000 4.97597878750000 
 N -2.28422224375000 5.38243958750000 4.72855278750000 
 N -4.09525024375000 0.432121587500000 3.89126778750000 
 N -4.23843024375000 4.35061958750000 3.56631678750000 
 N -4.90996924375000 0.983724587500000 7.62545978750000 
 N -4.95771324375000 4.60645958750000 7.40320578750000 
 S -5.59830924375000 0.509010587500001 6.20288078750000 
 S -5.62785524375000 4.02573758750000 6.01028078750000 
 S -2.56578724375000 0.896620587500000 3.44177878750000 
 S -2.76980924375000 5.02192158750000 3.17213378750000 
 S -3.24299324375000 1.29890958750000 7.56409478750000 
 S -3.45921824375000 5.32773858750000 7.28213278750000 
