16

 C -3.39911986562500 1.30278338750000 5.31837536875000 
 C -3.21279486562500 5.49408638750000 5.68249736875000 
 C -4.56277686562500 0.674858387499999 4.70917436875000 
 C -4.37170886562500 5.10404338750000 4.89558136875000 
 N -2.34427886562500 1.47574138750000 4.54236536875000 
 N -2.08464986562500 5.61598938750000 5.00269136875000 
 N -4.38002286562500 0.401556387500000 3.39873136875000 
 N -4.08535486562500 5.11082738750000 3.59297836875000 
 N -5.04725886562500 1.10945238750000 7.24870436875000 
 N -5.11984386562500 5.12653438750000 7.29270336875000 
 S -5.75296486562500 0.431298387500000 5.87470036875000 
 S -5.92494086562500 5.07013738750000 5.86149236875000 
 S -2.88910686562500 1.01719338750000 3.04079336875000 
 S -2.47340186562500 5.40113138750000 3.36808236875000 
 S -3.47220086562500 1.54832338750000 7.02758036875000 
 S -3.50913086562500 5.36186038750000 7.36322536875000 
