16

 C -2.98005003437500 1.78939212499999 5.67569919375000 
 C -3.14789203437500 5.42245912499999 5.61213819375000 
 C -4.05114003437500 1.00508412499999 5.12829419375000 
 C -4.34006403437500 4.86114712500000 5.02780819375000 
 N -1.99941003437500 1.96142812499999 4.77914719375000 
 N -2.15174803437500 5.62225512499999 4.76113519375000 
 N -3.93197603437500 0.654341124999994 3.87912819375000 
 N -4.21010103437500 4.53641812499999 3.75022419375000 
 N -4.75072903437500 1.37884212499999 7.50198019375000 
 N -4.85247303437500 5.31117312499999 7.50398719375000 
 S -5.41721303437500 0.782087124999994 6.07408919375000 
 S -5.66380103437500 4.96526512499999 6.12280819375000 
 S -2.38345003437500 1.09006112499999 3.41460319375000 
 S -2.59524903437500 4.94657912499999 3.33949719375000 
 S -3.26855103437500 2.10740712499999 7.34212319375000 
 S -3.24122503437500 5.62501712499999 7.37757219375000 
