16

 C -3.12024523437500 1.18396343750000 5.48886658437500 
 C -3.07576323437500 4.65130943750000 5.54594558437500 
 C -4.24045223437500 0.507660437500000 4.84335658437500 
 C -4.29022023437500 4.32051443750000 4.89134658437500 
 N -2.06103923437500 1.45178943750000 4.72046858437500 
 N -2.04822623437500 4.80632043750000 4.72311058437500 
 N -3.98069523437500 0.344241437500000 3.54153358437500 
 N -4.14459423437500 4.11694643750000 3.59312158437500 
 N -4.98749723437500 1.06220943750000 7.24722258437500 
 N -4.95118123437500 5.16760343750000 7.26341858437500 
 S -5.66416823437500 0.340437437500000 5.90132458437500 
 S -5.68618523437500 4.42695343750000 5.93617158437500 
 S -2.52856323437500 1.06495843750000 3.18207558437500 
 S -2.58239423437500 4.48552443750000 3.16640758437500 
 S -3.46179423437500 1.65674243750000 7.12209358437500 
 S -3.29323723437500 5.39730343750000 7.17784958437500 
