16

 C -3.22697004375000 1.19129514687500 5.90678235625000 
 C -2.96863504375000 4.60074214687500 5.37698935625000 
 C -4.36984804375000 0.701034146874999 5.19341335625000 
 C -4.27415804375000 4.54490414687500 4.78096135625000 
 N -2.17157204375000 1.56984314687500 5.13761735625000 
 N -2.02825804375000 4.83481714687500 4.45188635625000 
 N -4.27838804375000 0.711784146874999 3.85227935625000 
 N -4.31741604375000 4.46960914687500 3.44795935625000 
 N -4.92048004375000 0.476454146874999 7.70806635625000 
 N -4.60038404375000 4.55537214687500 7.34135335625000 
 S -5.66384604375000 0.237373146874999 6.22949135625000 
 S -5.51926804375000 4.46532214687500 5.93771335625000 
 S -2.75651104375000 1.26691814687500 3.60982335625000 
 S -2.74661704375000 4.69901614687500 2.95873635625000 
 S -3.45076804375000 1.23488114687500 7.61754135625000 
 S -3.00798304375000 4.79619214687500 7.05135035625000 
