16

 C -2.96133246250000 1.20075451250000 5.54807001562500 
 C -2.92853846250000 5.08467251250000 5.67158001562500 
 C -4.16056046250000 0.668654512499999 4.84043801562500 
 C -4.13769046250000 4.48074351250000 5.09859001562500 
 N -1.85445446250000 1.38611251250000 4.80729601562500 
 N -1.94652446250000 5.32958251250000 4.80365001562500 
 N -3.89121846250000 0.348552512500000 3.55270801562500 
 N -4.04714846250000 4.14769251250000 3.82046001562500 
 N -4.87540246250000 1.33435851250000 7.23592401562500 
 N -4.71978346250000 4.82875951250000 7.57291301562500 
 S -5.54167946250000 0.618119512499999 5.90036001562500 
 S -5.45366646250000 4.35421951250000 6.16025001562500 
 S -2.31864246250000 0.807791512500000 3.30810101562500 
 S -2.57328246250000 4.78637151250000 3.34486601562500 
 S -3.24022446250000 1.62913251250000 7.21403301562500 
 S -3.14151746250000 5.36933351250000 7.36912901562500 
