16

 C -3.24339925000000 1.18823180000000 5.57643776250000 
 C -3.41067025000000 4.79440280000000 5.32128076250000 
 C -4.37181825000000 0.630341800000000 4.83428876250000 
 C -4.69814225000000 4.50398680000000 4.67959676250000 
 N -2.25059825000000 1.55386080000000 4.78715376250000 
 N -2.33859925000000 4.89411180000000 4.50479376250000 
 N -4.19390925000000 0.606031800000000 3.52179376250000 
 N -4.61986225000000 4.58539680000000 3.35484576250000 
 N -5.09154425000000 0.848714800000000 7.27068676250000 
 N -5.14390325000000 4.76161480000000 7.26001276250000 
 S -5.63658525000000 0.114963800000000 5.91614976250000 
 S -5.97692225000000 4.51663980000000 5.80941576250000 
 S -2.67487025000000 1.24541480000000 3.21841676250000 
 S -3.00575625000000 4.90631380000000 2.99448076250000 
 S -3.49966325000000 1.27494680000000 7.28907776250000 
 S -3.46630625000000 4.84632980000000 7.09688876250000 
