16

 C -3.11559256250000 1.19945634687500 5.74771622187500 
 C -2.83116956250000 4.65805534687500 5.50628622187500 
 C -4.46162456250000 0.951390346874996 5.29615122187500 
 C -4.08527156250000 4.53040634687500 4.83743422187500 
 N -2.12982256250000 0.919159346874997 4.85684222187500 
 N -1.84942956250000 4.79509834687500 4.58790822187500 
 N -4.52729856250000 0.576086346874996 4.02246422187500 
 N -4.08983656250000 4.49175734687500 3.52429922187500 
 N -4.55127156250000 1.73883834687500 7.77439922187500 
 N -4.64897056250000 4.59569434687500 7.30009122187500 
 S -5.64850156250000 1.34362834687500 6.53733122187500 
 S -5.44675156250000 4.56030834687500 5.89779422187500 
 S -2.94270656250000 0.624857346874997 3.45613922187500 
 S -2.50677556250000 4.77622634687500 3.03058422187500 
 S -2.94412756250000 1.76333934687500 7.29478122187500 
 S -3.03920356250000 4.86825434687500 7.22404722187500 
