16

 C -2.88497809062500 1.42853721250000 5.74572834687500 
 C -3.17190409062500 4.73794521250000 5.62531934687500 
 C -4.18154509062500 1.18499221250000 5.08837334687500 
 C -4.43745209062500 4.62174721250000 4.97172734687500 
 N -1.82624809062500 1.45791821250000 4.93354334687500 
 N -2.09961409062500 4.72288221250000 4.78372434687500 
 N -4.10651909062500 1.08060321250000 3.76132334687500 
 N -4.38477409062500 4.67333121250000 3.64124434687500 
 N -4.69149409062500 1.49248221250000 7.65934534687500 
 N -5.00995809062500 4.66004721250000 7.47447834687500 
 S -5.54254109062500 1.24932021250000 6.25709434687500 
 S -5.80866809062500 4.44628721250000 6.05655734687500 
 S -2.49974909062500 1.28900721250000 3.41208534687500 
 S -2.74799709062500 4.74706721250000 3.26930334687500 
 S -3.01704209062500 1.62470321250000 7.53580534687500 
 S -3.39948609062500 4.98721521250000 7.35771534687500 
