16

 C -3.06235439062500 1.60104416562500 5.38056114062500 
 C -3.25629139062500 5.14223816562500 5.56161914062500 
 C -4.33470439062500 1.05283416562500 4.86283614062500 
 C -4.45565139062500 4.67456916562500 4.90973114062500 
 N -2.00315139062500 1.63067616562500 4.58019514062500 
 N -2.20728139062500 5.34300016562500 4.76607514062500 
 N -4.23641239062500 0.714419165625000 3.60125814062500 
 N -4.33405739062500 4.68044116562500 3.58911814062500 
 N -4.64501439062500 1.15253316562500 7.38140714062500 
 N -4.99579639062500 4.84569616562500 7.45353914062500 
 S -5.59956239062500 1.03216916562500 6.03848014062500 
 S -5.79525639062500 4.33290816562500 6.02186214062500 
 S -2.70036739062500 1.13686316562500 3.14747814062500 
 S -2.72053039062500 5.06760316562500 3.26441414062500 
 S -3.11553339062500 1.74593916562500 7.09345314062500 
 S -3.31882139062500 5.06030416562500 7.29074714062500 
