16

 C -3.19901162187500 1.11772835625000 5.55992060000000 
 C -3.14414062187500 5.63082935625000 5.56066660000000 
 C -4.40566162187500 0.755373356250001 4.89388460000000 
 C -4.20071162187500 4.92673335625000 4.91074260000000 
 N -2.14993662187500 1.15838735625000 4.72544560000000 
 N -2.02310062187500 5.84102535625000 4.85202060000000 
 N -4.35503362187500 0.690403356250000 3.57828160000000 
 N -3.94587962187500 4.77099635625000 3.60305960000000 
 N -5.00081362187500 1.23216335625000 7.34555560000000 
 N -4.89468262187500 5.07427835625000 7.35876660000000 
 S -5.71586462187500 0.740463356250000 5.94780160000000 
 S -5.53335062187500 4.44955935625000 5.98287960000000 
 S -2.77143062187500 1.06852335625000 3.14986260000000 
 S -2.44814262187500 5.34519535625000 3.29261060000000 
 S -3.38663062187500 1.45344135625000 7.23002660000000 
 S -3.47746262187500 5.97356235625000 7.23361860000000 
