16

 C -3.26985398750000 1.50212752187500 5.21997418125000 
 C -3.08209698750000 5.08791552187500 5.42262518125000 
 C -4.47257698750000 0.986660521874998 4.53332218125000 
 C -4.27209898750000 4.65246152187500 4.74898518125000 
 N -2.14889298750000 1.53535452187500 4.47451818125000 
 N -2.01269698750000 5.08641852187500 4.64635318125000 
 N -4.24270998750000 0.621715521874998 3.26347818125000 
 N -4.05879998750000 4.04092052187500 3.56592818125000 
 N -5.09776198750000 1.02905752187500 7.03078318125000 
 N -4.85878498750000 4.91432652187500 7.28872518125000 
 S -5.80744098750000 0.543576521874998 5.60620118125000 
 S -5.64344098750000 4.46477452187500 5.89501618125000 
 S -2.64886498750000 0.863937521874998 3.01029118125000 
 S -2.42228698750000 4.21752752187500 3.26424418125000 
 S -3.59048198750000 1.70451552187500 6.94218918125000 
 S -3.31455398750000 5.49036252187500 7.12545618125000 
