16

 C -3.16869783437500 1.16111524687500 5.53387673437500 
 C -3.10890783437500 5.71825124687500 5.60043073437500 
 C -4.38872983437500 0.727934246874998 4.90868273437500 
 C -4.16811683437500 4.94215124687500 4.92828873437500 
 N -2.16816383437500 1.39242624687500 4.65859273437500 
 N -2.04915383437500 5.92381424687500 4.83355973437500 
 N -4.33741083437500 0.669415246874998 3.57524273437500 
 N -3.96955483437500 4.80151824687500 3.65325873437500 
 N -5.08198683437500 1.25205724687500 7.35270273437500 
 N -4.84447283437500 5.06843924687500 7.37246673437500 
 S -5.82161083437500 0.746823246874998 5.93299473437500 
 S -5.54068983437500 4.46177124687500 5.98362973437500 
 S -2.74159683437500 1.01935124687500 3.15328873437500 
 S -2.47298183437500 5.39869524687500 3.30331773437500 
 S -3.43237783437500 1.47203324687500 7.26888573437500 
 S -3.44209783437500 5.91647424687500 7.27063873437500 
