16

 C -2.99528115937500 1.90890234062500 5.42061055625000 
 C -3.65220515937500 5.20875834062500 5.52133755625000 
 C -4.02458115937500 1.15392434062500 4.80224755625000 
 C -4.72575915937500 4.51160534062500 4.89278355625000 
 N -1.93780215937500 2.20803834062500 4.61906255625000 
 N -2.64308115937500 5.55829734062500 4.75159955625000 
 N -3.85029415937500 0.920975340624999 3.49140655625000 
 N -4.46635115937500 4.23630634062500 3.61415455625000 
 N -4.62831815937500 1.03252434062500 7.25455055625000 
 N -5.26357415937500 4.75121134062500 7.39913055625000 
 S -5.25599915937500 0.466542340624999 5.81232455625000 
 S -5.85262215937500 3.94754434062500 6.01174955625000 
 S -2.36077915937500 1.47433334062500 3.15834555625000 
 S -3.04342115937500 4.99515834062500 3.23744655625000 
 S -3.18214615937500 1.86437334062500 7.15674155625000 
 S -3.76355415937500 5.43307334062500 7.24884355625000 
