16

 C -3.28493035625000 1.57830911875000 5.49240199375000 
 C -3.10196735625000 5.20299311875000 5.69651299375000 
 C -4.53764335625000 1.14697611875000 4.92710199375000 
 C -4.30147435625000 4.66976511875000 5.07392999375000 
 N -2.38118935625000 1.78963511875000 4.57166699375000 
 N -2.07372635625000 5.36337011875000 4.86941199375000 
 N -4.57171635625000 1.11172711875000 3.60730799375000 
 N -4.24073135625000 4.72913111875000 3.76741199375000 
 N -4.81490435625000 1.10420211875000 7.51618799375000 
 N -4.93844835625000 5.07860511875000 7.54991599375000 
 S -5.76923035625000 0.991025118750001 6.20162299375000 
 S -5.60543435625000 4.36548511875000 6.18096599375000 
 S -3.04426435625000 1.39933811875000 3.04646099375000 
 S -2.71479935625000 5.06293811875000 3.35568599375000 
 S -3.25749735625000 1.68558411875000 7.28484299375000 
 S -3.28995135625000 5.43196411875000 7.39549899375000 
