16

 C -3.04065283750000 1.81842978750000 5.48455097500000 
 C -3.09898583750000 5.32574078750000 5.66337597500000 
 C -4.28377883750000 1.38380178750000 4.93409797500000 
 C -4.24193283750000 4.83034078750000 4.93893597500000 
 N -2.03959883750000 1.84751178750000 4.60322397500000 
 N -2.05467983750000 5.49436478750000 4.87171897500000 
 N -4.30388283750000 1.11777978750000 3.59986097500000 
 N -4.10887383750000 4.62498378750000 3.62877597500000 
 N -4.64861383750000 1.31864378750000 7.55405797500000 
 N -4.87790383750000 4.78014778750000 7.48202797500000 
 S -5.52918983750000 1.27791178750000 6.17088197500000 
 S -5.61446783750000 4.56303478750000 5.98669297500000 
 S -2.74790283750000 1.48178078750000 3.08087497500000 
 S -2.50093383750000 5.14611278750000 3.31277597500000 
 S -3.02353383750000 1.67024478750000 7.25472697500000 
 S -3.28503783750000 5.28785378750000 7.42369197500000 
