16

 C -3.26913404062500 1.11792110312500 5.66836387187500 
 C -3.03930304062500 5.18049710312500 5.54004787187500 
 C -4.46507904062500 0.722178103125001 4.99387987187500 
 C -4.25316404062500 4.72459210312500 4.90774587187500 
 N -2.22789704062500 1.28166610312500 4.85635187187500 
 N -1.97406804062500 5.30701110312500 4.76596687187500 
 N -4.32225604062500 0.541870103125001 3.64879287187500 
 N -4.10535804062500 4.58086410312500 3.58384687187500 
 N -5.08375004062500 0.865391103125001 7.54098287187500 
 N -4.67068304062500 4.63649210312500 7.48462887187500 
 S -5.77013504062500 0.349696103125001 6.10929487187500 
 S -5.52172904062500 4.24906310312500 6.07398287187500 
 S -2.72432704062500 0.957739103125001 3.27883987187500 
 S -2.52203604062500 4.88075210312500 3.18608787187500 
 S -3.47482604062500 1.38733310312500 7.36901187187500 
 S -3.10909404062500 5.23418110312500 7.23245787187500 
