16

 C -3.31853772812500 1.55246666250001 5.55925751875000 
 C -3.39194172812500 5.37825566250001 5.71563551875000 
 C -4.57822872812500 1.13783766250001 4.98009651875000 
 C -4.46626872812500 4.69514366250001 5.03408551875000 
 N -2.36120972812500 1.73864466250001 4.68365851875000 
 N -2.35809872812500 5.57151366250001 4.87132951875000 
 N -4.55822472812500 1.11923166250001 3.67539651875000 
 N -4.36464472812500 4.58329466250001 3.68917151875000 
 N -4.81653972812500 1.08964366250001 7.50671451875000 
 N -5.06124472812500 4.82284666250001 7.58412951875000 
 S -5.77625672812500 0.921860662500007 6.14282551875000 
 S -5.75569072812500 4.29622766250001 6.12694651875000 
 S -3.04284072812500 1.48294766250001 3.19131051875000 
 S -2.89301072812500 5.19280866250001 3.33989251875000 
 S -3.27254972812500 1.59585466250001 7.29613151875000 
 S -3.43811472812500 5.40334166250001 7.44381651875000 
