16

 C -3.12208109375000 1.48386696562500 5.66467708750000 
 C -2.93205409375000 5.17020496562500 5.46031308750000 
 C -4.39315709375000 1.15605496562500 5.03494808750000 
 C -4.14754609375000 4.85087796562500 4.85375508750000 
 N -2.16057409375000 1.67667396562500 4.79493508750000 
 N -1.91463309375000 5.35506396562500 4.59613308750000 
 N -4.35159309375000 1.18773396562500 3.70775908750000 
 N -4.09896709375000 4.76852296562500 3.51247608750000 
 N -5.00439409375000 1.51052396562500 7.52673008750000 
 N -4.65462709375000 5.13988896562500 7.28587508750000 
 S -5.71370309375000 0.957434965624998 6.13946108750000 
 S -5.45696509375000 4.58829696562500 5.97044308750000 
 S -2.78437109375000 1.41485496562500 3.30698108750000 
 S -2.50526709375000 5.11004996562500 3.09737608750000 
 S -3.35719209375000 1.85504096562500 7.38387108750000 
 S -3.05498809375000 5.30076196562500 7.15607008750000 
