16

 C -3.20145474375000 0.916324265625001 5.42845224375000 
 C -3.17095574375000 4.55155826562500 5.54999024375000 
 C -4.43602974375000 0.481806265625001 4.75520424375000 
 C -4.45608574375000 4.68834126562500 4.98005424375000 
 N -2.23681774375000 1.32948526562500 4.58876224375000 
 N -2.18684074375000 4.37253226562500 4.68222024375000 
 N -4.41323774375000 0.570136265625001 3.41169324375000 
 N -4.47729674375000 4.77551326562500 3.64626124375000 
 N -4.80507874375000 0.493018265625000 7.36639924375000 
 N -4.83716374375000 4.74144726562500 7.46559224375000 
 S -5.68427074375000 0.212285265625001 5.96427224375000 
 S -5.72014074375000 4.69874726562500 6.10274624375000 
 S -2.85632874375000 1.20958726562500 3.08949624375000 
 S -2.85734574375000 4.51354926562500 3.17371924375000 
 S -3.22934474375000 0.926971265625000 7.14017724375000 
 S -3.22554774375000 4.84306026562500 7.23332524375000 
