16

 C -3.27321461562500 1.45316491562500 5.56062754062500 
 C -3.34736861562500 5.11788391562500 5.48472954062500 
 C -4.48070161562500 1.03898091562500 4.90143554062500 
 C -4.53542761562500 4.54610091562500 4.90058454062500 
 N -2.25582061562500 1.55483291562500 4.71425454062500 
 N -2.37854461562500 5.35090591562500 4.57982754062500 
 N -4.37699261562500 0.939347915624999 3.58732554062500 
 N -4.52877461562500 4.45096991562500 3.56570354062500 
 N -5.04711561562500 1.29917491562500 7.35614154062500 
 N -5.11107861562500 4.95641491562500 7.39674954062500 
 S -5.77595461562500 0.721112915624999 5.95696054062500 
 S -5.84934561562500 4.28998091562500 6.06228754062500 
 S -2.78594461562500 1.30115391562500 3.16180454062500 
 S -2.98286361562500 4.88637291562500 3.11366154062500 
 S -3.39467961562500 1.49176491562500 7.32687654062500 
 S -3.46201761562500 5.14852891562500 7.21646454062500 
