16

 C -3.00576838125000 1.40335875000000 5.53049371562500 
 C -3.33402938125000 5.13215275000000 5.17019671562500 
 C -4.17271538125000 1.05408775000000 4.79433871562500 
 C -4.43960638125000 4.38116275000000 4.58552471562500 
 N -1.86921338125000 1.57138275000000 4.79880871562500 
 N -2.23315638125000 5.26310975000000 4.45138871562500 
 N -4.00420738125000 0.835417750000001 3.46944571562500 
 N -4.17515838125000 4.00898475000000 3.34835671562500 
 N -5.01289538125000 1.08434175000000 7.31297171562500 
 N -5.22058438125000 5.07641875000000 6.87617671562500 
 S -5.61077038125000 0.790808750000002 5.78256971562500 
 S -5.74518438125000 4.10037875000000 5.67317271562500 
 S -2.39899138125000 1.13298075000000 3.24084971562500 
 S -2.55079038125000 4.44566075000000 3.05316771562500 
 S -3.45632638125000 1.69711275000000 7.26676771562500 
 S -3.77682438125000 5.86108775000000 6.67769871562500 
