16

 C -3.09678882500000 1.29802432500000 5.34753833125000 
 C -2.84571582500000 5.04222732500000 5.67381133125000 
 C -4.28023382500000 0.748646324999999 4.61993033125000 
 C -4.07107682500000 4.43814132500000 5.17056333125000 
 N -2.07506382500000 1.59147232500000 4.53381733125000 
 N -1.88235482500000 5.26259032500000 4.80348733125000 
 N -4.18399582500000 0.802887324999999 3.28958433125000 
 N -4.02482282500000 4.21454432500000 3.88203833125000 
 N -4.90622682500000 0.699978324999999 7.11533733125000 
 N -4.52383282500000 4.63970032500000 7.61448233125000 
 S -5.58108682500000 0.305752324999999 5.63989233125000 
 S -5.40588682500000 4.48420732500000 6.26366633125000 
 S -2.64321082500000 1.32996532500000 2.92224033125000 
 S -2.57606982500000 4.83687032500000 3.30350233125000 
 S -3.33049182500000 1.34167732500000 7.06092533125000 
 S -2.97990382500000 5.19663032500000 7.39759533125000 
