16

 C -3.13282354687500 1.47767543750000 5.60227386875000 
 C -3.33203854687500 5.06112443750000 5.27581286875000 
 C -4.26504854687500 0.959233437500000 4.90161986875000 
 C -4.44617354687500 4.37730543750000 4.66825586875000 
 N -2.03407654687500 1.63935743750000 4.85422086875000 
 N -2.25703254687500 5.24077943750000 4.54521686875000 
 N -4.03111754687500 0.810176437500000 3.61196686875000 
 N -4.16239154687500 3.96008243750000 3.44949286875000 
 N -5.05757654687500 1.22320343750000 7.29825186875000 
 N -5.30126254687500 5.35059943750000 6.90712486875000 
 S -5.71288954687500 1.00597243750000 5.80000186875000 
 S -5.94866254687500 4.49233043750000 5.56327886875000 
 S -2.36379454687500 1.18148143750000 3.27364086875000 
 S -2.55451454687500 4.45206643750000 3.11796486875000 
 S -3.51096054687500 1.67186443750000 7.29200786875000 
 S -3.59794654687500 5.55308543750000 6.87146386875000 
