16

 C -2.89870241250000 2.08909703437500 5.43253098437500 
 C -3.07209741250000 5.16517503437500 5.41686598437500 
 C -4.11382741250000 1.59037903437500 4.82105198437500 
 C -4.25073941250000 4.83907603437500 4.70982598437500 
 N -1.92095041250000 2.32002903437500 4.56781898437500 
 N -2.01032341250000 5.34522803437500 4.62665798437500 
 N -3.98480141250000 1.25935103437500 3.52211298437500 
 N -4.09690641250000 4.80916903437500 3.38133798437500 
 N -4.61795141250000 1.85010503437500 7.35804098437500 
 N -4.96167341250000 5.04288003437500 7.12522898437500 
 S -5.41584041250000 1.44035503437500 5.95716198437500 
 S -5.65452341250000 4.55223703437500 5.71233298437500 
 S -2.40616441250000 1.81624103437500 3.10556498437500 
 S -2.51877041250000 5.22835703437500 3.03665498437500 
 S -3.04492141250000 2.25275503437500 7.16684198437500 
 S -3.30510641250000 5.32338503437500 7.11941398437500 
