16

 C -3.25334945000000 1.11256195000000 5.27006965937500 
 C -2.96733445000000 5.07614795000000 5.42556465937500 
 C -4.47410145000000 0.772193949999999 4.62063665937500 
 C -4.08351245000000 4.38350195000000 4.82558965937500 
 N -2.24608645000000 1.27893795000000 4.43930665937500 
 N -1.94820045000000 5.25907195000000 4.57432865937500 
 N -4.34308145000000 0.559746949999999 3.33353665937500 
 N -3.92640345000000 4.00873795000000 3.54407165937500 
 N -5.15057245000000 1.47610595000000 7.00847965937500 
 N -4.84395045000000 5.13491595000000 7.21022265937500 
 S -5.91770345000000 0.936962949999999 5.62472565937500 
 S -5.54154145000000 4.42356195000000 5.88313465937500 
 S -2.74678945000000 0.920919949999999 2.88596765937500 
 S -2.44569445000000 4.67709495000000 3.10360465937500 
 S -3.51273445000000 1.70191295000000 6.86141065937500 
 S -3.25544045000000 5.58719495000000 7.07139265937500 
