16

 C -2.85648481250000 1.37133275312500 5.69289215625000 
 C -3.03863081250000 4.74681375312500 5.42208115625000 
 C -4.01024781250000 0.761895753124997 5.15580815625000 
 C -4.32024081250000 4.45267675312500 4.79151115625000 
 N -1.90938781250000 1.52508975312500 4.75452215625000 
 N -2.02467281250000 4.81364475312500 4.53616715625000 
 N -3.92720381250000 0.356929753124997 3.91146515625000 
 N -4.24715381250000 4.07142975312500 3.51794915625000 
 N -4.70154681250000 1.50323675312500 7.54934715625000 
 N -4.86686781250000 5.10392675312500 7.20851215625000 
 S -5.35912481250000 0.801237753124997 6.15482615625000 
 S -5.66037881250000 4.54395775312500 5.82283215625000 
 S -2.44887981250000 0.800370753124997 3.39377315625000 
 S -2.68777181250000 4.39373175312500 3.07083915625000 
 S -3.07602681250000 1.85619575312500 7.34589215625000 
 S -3.20014481250000 5.40409375312500 7.09787215625000 
