16

 C -2.99778694375000 1.45174700625000 5.48258368125000 
 C -3.28049494375000 5.31896500625000 5.46886268125000 
 C -4.24648994375000 0.901643006249999 4.87539268125000 
 C -4.44075294375000 4.82785900625000 4.77134168125000 
 N -2.04000694375000 1.69149800625000 4.56398668125000 
 N -2.25111794375000 5.58724800625000 4.67854368125000 
 N -4.26372994375000 0.847759006249999 3.54511268125000 
 N -4.27499894375000 4.66687900625000 3.47564568125000 
 N -4.70066194375000 1.20236100625000 7.33332268125000 
 N -5.14678094375000 4.67439900625000 7.22859968125000 
 S -5.49909594375000 0.696770006249999 5.99748468125000 
 S -5.84172794375000 4.42410800625000 5.72526968125000 
 S -2.75970794375000 1.22518400625000 3.12069668125000 
 S -2.77802194375000 5.15998500625000 3.10228468125000 
 S -3.08985494375000 1.62112100625000 7.15490468125000 
 S -3.53631594375000 5.22554400625000 7.20285268125000 
