16

 C -3.27871462187500 1.41727498125000 5.60568778437500 
 C -3.36774562187500 5.12298198125000 5.26195178437500 
 C -4.57346962187500 1.08506798125000 4.91364478437500 
 C -4.54371762187500 4.56624298125000 4.65313078437500 
 N -2.23934662187500 1.57484698125000 4.79491978437500 
 N -2.32884562187500 5.29673198125000 4.47997178437500 
 N -4.42629562187500 0.853955981250002 3.63570878437500 
 N -4.39101462187500 4.33494198125000 3.36001778437500 
 N -5.19785962187500 1.06417098125000 7.45453078437500 
 N -5.02551562187500 4.64979298125000 7.20554978437500 
 S -5.90862662187500 0.748091981250002 6.00655378437500 
 S -5.75610962187500 4.28445498125000 5.81164078437500 
 S -2.82809162187500 1.17831298125000 3.26535278437500 
 S -2.84855262187500 4.88496298125000 2.93518778437500 
 S -3.59738962187500 1.45879098125000 7.30970078437500 
 S -3.46687662187500 5.26538898125000 7.02243078437500 
