16

 C -3.25541846562500 0.887614093749999 5.46757242500000 
 C -3.21840446562500 4.98705209375000 5.71484142500000 
 C -4.49291646562500 0.681329093749999 4.76335442500000 
 C -4.43646346562500 4.57094109375000 5.07910542500000 
 N -2.22500046562500 1.22193009375000 4.71581142500000 
 N -2.23494446562500 5.27364109375000 4.87838842500000 
 N -4.33034846562500 0.728608093749999 3.43455442500000 
 N -4.36321746562500 4.36972209375000 3.74647142500000 
 N -5.08907746562500 0.641427093749999 7.32271042500000 
 N -4.94491746562500 4.76872309375000 7.62436942500000 
 S -5.83172846562500 0.325475093749999 5.84936242500000 
 S -5.69195946562500 4.20296309375000 6.25347242500000 
 S -2.74327346562500 1.26232909375000 3.14790242500000 
 S -2.78606446562500 4.79072109375000 3.38162442500000 
 S -3.46662246562500 0.811393093749999 7.11907842500000 
 S -3.35462346562500 5.11171809375000 7.44202442500000 
