16

 C -3.33236748750000 1.38782271875000 5.25168923437500 
 C -3.21689848750000 5.05686071875000 5.36939823437500 
 C -4.52463148750000 0.853846718750002 4.66002223437500 
 C -4.43085748750000 4.98894271875000 4.64593123437500 
 N -2.29471848750000 1.49389071875000 4.41857423437500 
 N -2.11150548750000 5.19223871875000 4.65866023437500 
 N -4.46009448750000 0.721022718750002 3.33237623437500 
 N -4.25197648750000 5.24847271875000 3.33661023437500 
 N -4.97549948750000 1.22363871875000 7.24206123437500 
 N -4.95490848750000 4.73333871875000 7.21884523437500 
 S -5.83420348750000 0.596311718750002 5.85975623437500 
 S -5.71560848750000 4.97134271875000 5.79915823437500 
 S -2.93031848750000 1.15881571875000 2.91346223437500 
 S -2.59646348750000 5.40174071875000 3.08060923437500 
 S -3.36810248750000 1.57617471875000 7.00477723437500 
 S -3.31188448750000 5.06918371875000 7.13209123437500 
