16

 C -3.17872711562500 1.13630784375000 5.57000390000000 
 C -3.33735811562500 4.90426584375000 5.49377490000000 
 C -4.24521511562500 0.620199843749999 4.81713990000000 
 C -4.60238311562500 4.70300684375000 4.83039490000000 
 N -2.13534611562500 1.50868984375000 4.88953290000000 
 N -2.32447311562500 4.80280684375000 4.62527690000000 
 N -4.06068511562500 0.610581843749999 3.52977790000000 
 N -4.63000711562500 4.68933384375000 3.49159390000000 
 N -4.97534011562500 0.329880843750000 7.16508190000000 
 N -5.03279911562500 4.73546284375000 7.44333490000000 
 S -5.59605711562500 6.929684374999967E-002 5.67516590000000 
 S -5.90496111562500 4.57043584375000 5.99791490000000 
 S -2.57877711562500 1.34123584375000 3.28588190000000 
 S -3.00406911562500 4.62273884375000 3.11298590000000 
 S -3.50297511562500 1.06806984375000 7.22478490000000 
 S -3.38055411562500 4.76591884375000 7.20413690000000 
