16

 C -3.00707610000000 1.41782384687500 5.43721631250000 
 C -3.34278610000000 5.49386084687500 5.34394131250000 
 C -4.25077210000000 1.06214484687500 4.85475131250000 
 C -4.26945210000000 4.55575284687500 4.78153631250000 
 N -2.01430810000000 1.33705684687500 4.60063431250000 
 N -2.28808810000000 5.69376984687500 4.60160531250000 
 N -4.20988910000000 0.708374846875001 3.56911931250000 
 N -4.00074810000000 4.18200284687500 3.53231531250000 
 N -4.69787110000000 0.931363846875001 7.32277731250000 
 N -5.14441010000000 5.38733184687500 7.10344431250000 
 S -5.56454410000000 0.932216846875002 5.88718631250000 
 S -5.64495710000000 4.44739384687500 5.88801931250000 
 S -2.62259410000000 1.01162484687500 3.05671131250000 
 S -2.55692910000000 4.84998084687500 3.17819131250000 
 S -3.07517310000000 1.35392184687500 7.18435431250000 
 S -3.56393610000000 5.90952584687500 7.02737731250000 
