16

 C -3.79496195937500 1.17105980312500 5.67804715000000 
 C -3.14161995937500 4.97151380312500 5.34035815000000 
 C -4.85221895937500 0.653491803125003 4.90002415000000 
 C -4.38352695937500 4.49641780312500 4.78064815000000 
 N -2.70812495937500 1.41996880312500 4.98790315000000 
 N -2.15170995937500 5.03946780312500 4.47600015000000 
 N -4.62907895937500 0.513652803125002 3.58654815000000 
 N -4.30699295937500 4.16793080312500 3.47357515000000 
 N -5.62102695937500 0.670307803125003 7.38012615000000 
 N -4.73445695937500 5.04463780312500 7.31016515000000 
 S -6.24333995937500 0.202910803125003 5.91155915000000 
 S -5.54382395937500 4.25198980312500 6.05836815000000 
 S -3.11368795937500 1.20050280312500 3.42322315000000 
 S -2.70133395937500 4.57583580312500 3.04198815000000 
 S -4.03038695937500 1.25370080312500 7.36996115000000 
 S -3.16975395937500 5.49308980312500 6.94640415000000 
