16

 C -3.14087173437500 1.06782120937500 5.48039848125000 
 C -3.16711173437500 5.54969420937500 5.50284548125000 
 C -4.39550973437500 0.840638209375003 4.90159448125000 
 C -4.18823173437500 4.76792620937500 4.85458948125000 
 N -2.10214573437500 1.12266620937500 4.67022148125000 
 N -2.08277973437500 5.74776320937500 4.77399348125000 
 N -4.34689373437500 0.876336209375003 3.56532748125000 
 N -3.98062973437500 4.60986920937500 3.56767148125000 
 N -4.82467573437500 1.08841520937500 7.39559948125000 
 N -5.01196173437500 5.20932720937500 7.26714748125000 
 S -5.76456073437500 0.739510209375003 6.00099348125000 
 S -5.52336773437500 4.44695920937500 5.92490748125000 
 S -2.68354073437500 1.00967920937500 3.13787848125000 
 S -2.48005273437500 5.16169920937500 3.25254248125000 
 S -3.19091873437500 1.40756520937500 7.17056148125000 
 S -3.53867873437500 5.98321120937500 7.17228148125000 
