16

 C -2.91413800000000 1.57817065312501 5.44299429687500 
 C -3.17536400000000 5.21828865312501 5.57450729687500 
 C -4.05148600000000 0.984215653125007 4.84166829687500 
 C -4.24213400000000 4.56835265312501 4.84962929687500 
 N -1.96822100000000 1.79922365312501 4.46741629687500 
 N -2.10552400000000 5.39722265312501 4.79563429687500 
 N -4.00145400000000 0.730792653125008 3.53625729687500 
 N -3.86071000000000 4.15256865312501 3.61802729687500 
 N -4.59240700000000 1.01886065312501 7.23340629687500 
 N -4.93822300000000 4.90857565312501 7.37344629687500 
 S -5.32300100000000 0.426781653125007 5.87278629687500 
 S -5.66245300000000 4.43808365312501 5.88249329687500 
 S -2.59229100000000 1.18773765312501 3.04630829687500 
 S -2.33416800000000 4.65289065312501 3.37340929687500 
 S -3.11628700000000 1.71036565312501 7.15036229687500 
 S -3.39718900000000 5.43108065312501 7.23480729687500 
