16

 C -2.99478572812500 1.58705134687500 5.45478402812500 
 C -3.13796272812500 5.13412734687500 5.39867302812500 
 C -4.14346172812500 1.08961134687500 4.72149202812500 
 C -4.33377872812500 4.51017834687500 4.88605102812500 
 N -1.89351872812500 1.54262834687500 4.70978702812500 
 N -2.16909672812500 5.20059634687500 4.48792702812500 
 N -3.96399072812500 0.797519346874997 3.43799102812500 
 N -4.31172372812500 4.12108834687500 3.59611002812500 
 N -5.00438672812500 1.30403934687500 7.18579402812500 
 N -4.85050072812500 4.99123534687500 7.35548302812500 
 S -5.61118172812500 0.967525346874997 5.69098702812500 
 S -5.63192872812500 4.37617134687500 6.03361002812500 
 S -2.32720872812500 1.12330034687500 3.12618202812500 
 S -2.83177272812500 4.63633234687500 3.02632302812500 
 S -3.43050672812500 1.77217134687500 7.15649702812500 
 S -3.25954972812500 5.45033334687500 7.16187902812500 
