16

 C -3.00952805312500 1.42429040312500 5.56351589375000 
 C -3.30954105312500 5.14413540312500 5.19582289375000 
 C -4.21651205312500 1.05104940312500 4.77242389375000 
 C -4.40658705312500 4.42620140312500 4.58702989375000 
 N -1.88063305312500 1.58281140312500 4.82708189375000 
 N -2.19521005312500 5.22910040312500 4.44502689375000 
 N -3.95418605312500 0.870625403124999 3.47623689375000 
 N -4.12448705312500 4.00391240312500 3.35231989375000 
 N -5.03167205312500 1.10757840312500 7.24624889375000 
 N -5.27559405312500 5.12038940312500 6.85681789375000 
 S -5.61983705312500 0.808517403124998 5.76552389375000 
 S -5.76347805312500 4.10179440312500 5.66693089375000 
 S -2.39695005312500 1.13431140312500 3.26899789375000 
 S -2.57786405312500 4.41435540312500 3.04456989375000 
 S -3.45981305312500 1.68103140312500 7.27180789375000 
 S -3.77617005312500 5.86015540312500 6.71033089375000 
