16

 C -3.27578899062500 1.59485161250000 5.48426767812500 
 C -3.23980599062500 5.23343961250000 5.66667067812500 
 C -4.57927699062500 1.26419161250000 4.98376067812500 
 C -4.47718499062500 4.75447061250000 5.04001267812500 
 N -2.29590199062500 1.71580361250000 4.63035867812500 
 N -2.25142599062500 5.53247661250000 4.85563667812500 
 N -4.56546699062500 1.06584061250000 3.66286267812500 
 N -4.33516899062500 4.65230461250000 3.75298767812500 
 N -4.85362599062500 1.06518861250000 7.53903567812500 
 N -4.99134599062500 4.92364561250000 7.58693067812500 
 S -5.81415399062500 0.942952612499998 6.22824367812500 
 S -5.69257999062500 4.30089461250000 6.21388767812500 
 S -3.02666899062500 1.48877361250000 3.16134667812500 
 S -2.77511599062500 5.17952161250000 3.33580367812500 
 S -3.27434199062500 1.62442261250000 7.19852767812500 
 S -3.41921399062500 5.39878261250000 7.43728767812500 
