16

 C -3.07237339062500 1.51556176250000 5.57818027187500 
 C -2.97024739062500 5.33966176250000 5.42580627187500 
 C -4.31714339062500 1.00636176250000 5.11913027187500 
 C -4.21112339062500 4.89324976250000 4.78413627187500 
 N -2.14196939062500 1.64825476250000 4.62161627187500 
 N -2.03766339062500 5.54201976250000 4.56821427187500 
 N -4.30142039062500 0.700345762500002 3.81553527187500 
 N -4.12373439062500 4.72723276250000 3.48108827187500 
 N -4.61764139062500 1.18066676250000 7.59669427187500 
 N -4.54645639062500 4.85700576250000 7.33743327187500 
 S -5.55063539062500 0.837227762500001 6.27750627187500 
 S -5.44669139062500 4.64666576250000 5.99164027187500 
 S -2.83708139062500 1.14783776250000 3.21917927187500 
 S -2.57017239062500 5.23829176250000 3.04078127187500 
 S -3.03894739062500 1.60441776250000 7.41286927187500 
 S -2.98962939062500 5.42371676250000 7.13305827187500 
