16

 C -3.22083594687500 1.27702118750000 5.57119565625000 
 C -3.28596894687500 5.05549018750000 5.41520365625000 
 C -4.45727294687500 1.16406918750000 4.86057365625000 
 C -4.52602994687500 4.68240318750000 4.77765965625000 
 N -2.18250694687500 1.21973418750000 4.78643565625000 
 N -2.20597994687500 4.97322118750000 4.68886465625000 
 N -4.29205294687500 0.855731187500004 3.57870465625000 
 N -4.38382194687500 4.40472718750000 3.48623865625000 
 N -5.01675694687500 1.35036318750000 7.37326165625000 
 N -5.00726494687500 5.04829318750000 7.28825465625000 
 S -5.79522194687500 1.37565218750000 5.89726965625000 
 S -5.78991194687500 4.45780918750000 5.93801765625000 
 S -2.68557894687500 0.956452187500004 3.21255065625000 
 S -2.77781894687500 4.45367218750000 3.13821165625000 
 S -3.35154794687500 1.40100518750000 7.24181865625000 
 S -3.42721494687500 5.59020918750000 7.09325565625000 
