16

 C -2.96346626250000 1.40429774062500 5.40946438437500 
 C -3.24854826250000 5.24752674062500 5.45671238437500 
 C -4.23814726250000 0.968233740625001 4.86856238437500 
 C -4.44653026250000 4.80991574062500 4.78189338437500 
 N -2.06616926250000 1.70071674062500 4.51259238437500 
 N -2.21636226250000 5.64917374062500 4.68379938437500 
 N -4.30753026250000 0.873753740625001 3.55701138437500 
 N -4.26996626250000 4.65666174062500 3.47591838437500 
 N -4.63365826250000 1.18857474062500 7.33521738437500 
 N -5.12622026250000 4.67637374062500 7.24926938437500 
 S -5.45250226250000 0.719090740625001 5.95807538437500 
 S -5.81568826250000 4.40216974062500 5.73284338437500 
 S -2.75767126250000 1.22111174062500 3.05627638437500 
 S -2.72742726250000 5.14498774062500 3.12474138437500 
 S -3.03338826250000 1.62450174062500 7.14672938437500 
 S -3.55089626250000 5.21251574062500 7.17573038437500 
