16

 C -2.86373302500000 1.29798199375000 5.46585842187500 
 C -3.04747502500000 5.24051299375000 5.62046242187500 
 C -4.07979302500000 0.881752993749998 4.78531242187500 
 C -4.14003502500000 4.55701799375000 4.96624642187500 
 N -1.78335702500000 1.31977599375000 4.71960642187500 
 N -1.99680002500000 5.38810899375000 4.84556242187500 
 N -3.91041202500000 0.690032993749998 3.46266242187500 
 N -3.98205902500000 4.30132699375000 3.65010842187500 
 N -4.71704802500000 1.12980699375000 7.39853742187500 
 N -4.72145202500000 4.69738699375000 7.52267242187500 
 S -5.46067702500000 0.771898993749998 5.92755542187500 
 S -5.47099902500000 4.31884899375000 6.08797642187500 
 S -2.35104402500000 1.03980999375000 3.12294642187500 
 S -2.41178602500000 4.92047199375000 3.30882942187500 
 S -3.06931102500000 1.38117099375000 7.23493442187500 
 S -3.20589602500000 5.40166099375000 7.37305042187500 
