16

 C -3.52526266875000 1.34204232187500 5.51008888437500 
 C -3.01538466875000 5.17089432187500 5.41499488437500 
 C -4.52262466875000 0.568549321875003 4.77938388437500 
 C -4.22650166875000 4.80025632187500 4.64742588437500 
 N -2.44336366875000 1.70153532187500 4.80639388437500 
 N -1.92431066875000 5.07311832187500 4.66872588437500 
 N -4.16759466875000 0.320522321875004 3.52073788437500 
 N -4.04716166875000 4.44992132187500 3.41103588437500 
 N -5.33302266875000 0.965479321875003 7.27558988437500 
 N -5.01701766875000 5.23501632187500 7.05442288437500 
 S -5.89572266875000 0.210347321875003 5.86769088437500 
 S -5.71163066875000 4.89782832187500 5.61650188437500 
 S -2.68356566875000 1.02133832187500 3.29581488437500 
 S -2.39693266875000 4.56885232187500 3.17833488437500 
 S -3.87708266875000 1.71065832187500 7.19496088437500 
 S -3.34484566875000 5.52106332187500 7.15320688437500 
