16

 C -3.10366670312500 1.38663371562500 5.50862488125000 
 C -3.23258170312500 5.06424371562500 5.18087688125000 
 C -4.32280470312500 0.966064715624998 4.96160688125000 
 C -4.38402270312500 4.46492771562500 4.59118488125000 
 N -2.06763470312500 1.49537771562500 4.70252388125000 
 N -2.16862670312500 5.05727071562500 4.40487888125000 
 N -4.25998670312500 0.589696715624997 3.67044488125000 
 N -4.16291170312500 3.94037171562500 3.37400288125000 
 N -4.74319970312500 1.26034171562500 7.57345488125000 
 N -4.93446970312500 5.10206071562500 7.12439688125000 
 S -5.57390370312500 0.854014715624998 6.25282588125000 
 S -5.63372770312500 4.28831971562500 5.82921588125000 
 S -2.63677270312500 0.925039715624997 3.22066588125000 
 S -2.57932570312500 4.29396071562500 2.96443588125000 
 S -3.24694770312500 1.81491571562500 7.20739788125000 
 S -3.28519770312500 5.47269871562500 6.87119888125000 
