16

 C -3.00576191562499 1.41264254062500 5.28540447187500 
 C -3.24491991562499 5.12361254062500 5.32521147187500 
 C -4.29797991562499 1.00103054062500 4.78869447187500 
 C -4.43299791562499 4.49697254062500 4.86990747187500 
 N -1.99342991562499 1.41485954062500 4.39712147187500 
 N -2.32239291562499 5.41591154062500 4.38300847187500 
 N -4.23280691562499 0.616437540624998 3.51484447187500 
 N -4.50710891562499 4.36156954062500 3.56301947187500 
 N -4.56623191562499 1.32663254062500 7.41907447187500 
 N -4.78780891562499 4.86528554062500 7.33832547187500 
 S -5.52761291562499 0.895399540624998 6.08709447187500 
 S -5.64193191562499 4.18982654062500 6.05353747187500 
 S -2.72927691562499 1.00060354062500 2.96104547187500 
 S -3.12457191562499 4.91997254062500 2.94713447187500 
 S -2.95311591562499 1.59232354062500 6.99136747187500 
 S -3.26657691562499 5.34878054062500 7.09632847187500 
