16

 C -3.19400344687500 1.45615810312500 5.63279819062500 
 C -3.09681544687500 5.17417610312500 5.50705219062500 
 C -4.40801244687500 1.25387710312500 4.82508219062500 
 C -4.36000144687500 4.87615010312500 4.82618819062500 
 N -2.14583844687500 1.90008910312500 4.93254519062500 
 N -2.09551244687500 5.39093310312500 4.67848419062500 
 N -4.22768244687500 1.33168710312500 3.51003519062500 
 N -4.20963044687500 4.72428910312500 3.51789919062500 
 N -5.05678444687500 1.01018310312500 7.31091419062500 
 N -4.80435144687500 5.32043610312500 7.37942919062500 
 S -5.79552344687500 0.805361103125003 5.87234419062500 
 S -5.60838444687500 4.68947910312500 5.99359319062500 
 S -2.61079944687500 1.75520510312500 3.30888319062500 
 S -2.60728744687500 5.04163910312500 3.13934919062500 
 S -3.40533944687500 1.14186810312500 7.30336219062500 
 S -3.09150644687500 5.44719310312500 7.24173119062500 
