16

 C -3.19473700312500 1.44861743437500 5.66184602812500 
 C -3.47150700312500 5.23543343437500 5.48169002812500 
 C -4.33595400312500 0.874922434374999 5.04502902812500 
 C -4.62483200312500 4.61776643437500 4.81826702812500 
 N -2.16193600312500 1.69478443437500 4.79697702812500 
 N -2.48080900312500 5.56860543437500 4.60875702812500 
 N -4.21722400312500 0.571401434374999 3.74613202812500 
 N -4.38145200312500 4.34781043437500 3.53292602812500 
 N -4.87563500312500 0.803901434374999 7.62172102812500 
 N -5.35526500312500 4.97938243437500 7.21521002812500 
 S -5.62890000312500 0.415908434374999 6.20366602812500 
 S -5.87564900312500 4.10780543437500 5.90094202812500 
 S -2.78002000312500 1.20722443437500 3.27535502812500 
 S -2.88247100312500 4.97391943437500 3.13476602812500 
 S -3.43546100312500 1.57482243437500 7.37097702812500 
 S -3.87405600312500 5.67136243437500 7.17042102812500 
