16

 C -3.18213671250000 1.38786651875000 5.51352828750000 
 C -3.17608971250000 4.97619451875001 5.69218928750000 
 C -4.47385571250000 1.00653451875000 4.94424228750000 
 C -4.32591571250000 4.40659751875001 5.04670328750000 
 N -2.16187071250000 1.56849651875000 4.65181328750000 
 N -2.22346071250000 5.24866751875000 4.84237528750000 
 N -4.38896271250000 0.787276518750004 3.64941128750000 
 N -4.21322671250000 4.19294951875000 3.73810928750000 
 N -4.93864771250000 1.41944751875000 7.42699528750000 
 N -4.88574771250000 4.73126451875001 7.54611228750000 
 S -5.77319371250000 0.919766518750005 6.07753828750000 
 S -5.64758971250000 4.22843751875001 6.18264828750000 
 S -2.89267171250000 1.15419651875000 3.14852028750000 
 S -2.68098671250000 4.70632251875000 3.32630628750000 
 S -3.29301571250000 1.72479051875000 7.15622428750000 
 S -3.37107771250000 5.31979651875000 7.40610528750000 
