16

 C -3.00637946562500 1.41748433750000 5.53418468750000 
 C -3.01019446562500 4.87032933750000 5.22879168750000 
 C -4.22980846562500 1.01128933750000 4.87317268750000 
 C -4.34417746562500 4.88164033750000 4.60596768750000 
 N -1.90953946562500 1.46369233750000 4.77853168750000 
 N -1.97658946562500 4.78216733750000 4.43466068750000 
 N -3.98695546562500 0.673159337499999 3.64088768750000 
 N -4.23671546562500 4.62191533750000 3.33314468750000 
 N -4.86501446562500 1.31838033750000 7.33888768750000 
 N -4.68443246562500 5.23895033750000 7.11874468750000 
 S -5.63186346562500 0.914891337499999 5.91682368750000 
 S -5.57841046562500 4.83899433750000 5.78661268750000 
 S -2.41170146562500 1.03869133750000 3.25008968750000 
 S -2.67476646562500 4.60042333750000 2.92206868750000 
 S -3.23527546562500 1.82289933750000 7.14438368750000 
 S -3.04054546562500 5.32087033750000 6.89691668750000 
