16

 C -3.22397483125000 1.56181170000000 5.36008690937500 
 C -3.04548683125000 5.06333770000000 5.42713890937500 
 C -4.37712183125000 1.11276670000000 4.67346990937500 
 C -4.30462183125000 4.91060870000000 4.73037890937500 
 N -2.22836483125000 1.76088770000000 4.51815490937500 
 N -1.99231383125000 5.12693070000000 4.59398490937500 
 N -4.27322783125000 0.920838700000001 3.35280190937500 
 N -4.26577983125000 5.00661770000000 3.38866390937500 
 N -5.02926283125000 1.18050770000000 7.14799690937500 
 N -4.81821783125000 4.95360570000000 7.25616790937500 
 S -5.74675883125000 0.827356700000001 5.68828190937500 
 S -5.62761183125000 4.77417970000000 5.82671490937500 
 S -2.73430083125000 1.51409570000000 2.99413690937500 
 S -2.63186783125000 5.09266570000000 3.05433190937500 
 S -3.35058983125000 1.60517270000000 7.11918390937500 
 S -3.22006883125000 4.82592370000000 7.20002990937500 
