16

 C -3.06985666250000 1.53573523125000 5.73107415000000 
 C -3.05126566250000 5.22104523125000 5.80981515000000 
 C -4.18951966250000 1.03832523125000 5.06448115000000 
 C -4.30179366250000 4.96078723125000 5.12967015000000 
 N -2.02172666250000 1.59137123125000 4.89124615000000 
 N -1.97241166250000 5.27302723125000 5.03746615000000 
 N -4.12995366250000 0.873371231249998 3.75570615000000 
 N -4.13266366250000 4.87637223125000 3.82376415000000 
 N -4.94961266250000 1.36861523125000 7.42878415000000 
 N -4.86842866250000 5.10339523125000 7.60725715000000 
 S -5.56168266250000 0.697523231249998 6.01909115000000 
 S -5.66131766250000 4.76011923125000 6.21938015000000 
 S -2.56259866250000 1.24482523125000 3.40598615000000 
 S -2.53368266250000 5.15254123125000 3.51118815000000 
 S -3.30188766250000 1.86612623125000 7.41069915000000 
 S -3.28720266250000 5.45872423125000 7.52113915000000 
