16

 C -2.84761074687500 1.71479098125000 5.29358261562500 
 C -3.34591274687500 5.12197998125000 5.59753561562500 
 C -4.06727774687500 1.09709798125000 4.78893661562500 
 C -4.48698574687500 4.56239798125000 4.89565761562500 
 N -1.91806674687500 1.97242998125000 4.36500561562500 
 N -2.28518974687500 5.28487998125000 4.79608361562500 
 N -3.93559674687500 0.836811981250001 3.46948261562500 
 N -4.36543974687500 4.54217698125000 3.55949561562500 
 N -4.27169374687500 1.07606198125000 7.34901761562500 
 N -5.03554674687500 4.49510398125000 7.45094161562500 
 S -5.16501874687500 0.574014981250001 6.04146361562500 
 S -5.72715474687500 4.00683598125000 6.00520661562500 
 S -2.43691974687500 1.36028398125000 2.90585261562500 
 S -2.83383074687500 5.05869698125000 3.21894561562500 
 S -2.81056274687500 1.71312098125000 6.99261561562500 
 S -3.46366874687500 4.92061198125000 7.36167561562500 
