16

 C -3.19043936875000 1.33582713750000 5.35939571250000 
 C -3.19003436875000 5.02092913750000 5.43696071250000 
 C -4.32433836875000 0.558074137500003 4.85816171250000 
 C -4.49141336875000 4.67034813750000 4.93686071250000 
 N -2.22626836875000 1.56731313750000 4.48911271250000 
 N -2.19193236875000 5.06019813750000 4.54578971250000 
 N -4.17093336875000 0.315028137500003 3.56438971250000 
 N -4.44172036875000 4.37632113750000 3.64612171250000 
 N -4.86933236875000 1.24820113750000 7.37049071250000 
 N -4.79400736875000 4.86061013750000 7.47301871250000 
 S -5.56714636875000 0.370614137500003 6.14215471250000 
 S -5.76147636875000 4.69122613750000 6.13366371250000 
 S -2.70393736875000 0.875103137500003 3.03973571250000 
 S -2.91723136875000 4.71076713750000 3.08956671250000 
 S -3.40013236875000 1.89421113750000 7.01223971250000 
 S -3.26903236875000 5.34192413750000 7.10563471250000 
