16

 C -3.20844069062500 1.38205597500000 5.35364250000000 
 C -3.20108169062500 5.30856397500000 5.69844950000000 
 C -4.32043269062500 0.653870975000004 4.85404150000000 
 C -4.37889369062500 4.75252397500000 5.08696750000000 
 N -2.21084869062500 1.49184697500000 4.50945250000000 
 N -2.17353469062500 5.39237797500000 4.88980150000000 
 N -4.08934369062500 0.156080975000004 3.63529750000000 
 N -4.22740369062500 4.49576697500000 3.78506850000000 
 N -5.03153469062500 1.60220597500000 7.18198150000000 
 N -5.02545969062500 5.05978897500000 7.57234150000000 
 S -5.70202069062500 0.681028975000004 5.92756750000000 
 S -5.64913969062500 4.52319997500000 6.13666050000000 
 S -2.62996069062500 0.623852975000004 3.13567950000000 
 S -2.70107869062500 4.88388097500000 3.37549050000000 
 S -3.43548669062500 2.06344497500000 6.93330750000000 
 S -3.51208169062500 5.74192997500000 7.35771450000000 
