16

 C -3.35973240937500 1.19349200937500 5.47618461250000 
 C -3.25445540937500 5.35179200937500 5.77517161250000 
 C -4.53192340937500 0.696151009375000 4.85318461250000 
 C -4.35291140937500 4.75595100937500 5.12651561250000 
 N -2.34337840937500 1.55207100937500 4.66559361250000 
 N -2.20641140937500 5.73760000937500 4.99967861250000 
 N -4.40623340937500 0.702775009374999 3.54809161250000 
 N -4.19632740937500 4.76391000937500 3.78215861250000 
 N -5.08413140937500 0.822366009375000 7.37327661250000 
 N -4.84382540937500 4.61052000937500 7.64582861250000 
 S -5.91552140937500 0.409354009375000 5.94482661250000 
 S -5.64735640937500 4.38022300937500 6.25506461250000 
 S -2.84548540937500 1.17634500937500 3.13423761250000 
 S -2.76623940937500 5.44585900937500 3.43913561250000 
 S -3.47309840937500 1.20893700937500 7.18720761250000 
 S -3.35630040937500 5.27779700937500 7.53337861250000 
