16

 C -3.25590135000000 1.04501229062500 5.54698257187500 
 C -3.20744235000000 5.10249329062500 5.73852257187500 
 C -4.46839835000000 0.783585290624998 4.83278657187500 
 C -4.36527235000000 4.54651629062500 5.07429757187500 
 N -2.23619035000000 1.22402929062500 4.71210057187500 
 N -2.22824435000000 5.41639929062500 4.88251157187500 
 N -4.42640535000000 0.792762290624998 3.50322657187500 
 N -4.24181635000000 4.29133629062500 3.78104357187500 
 N -5.03281435000000 0.526948290624999 7.28449957187500 
 N -4.85086635000000 4.44650329062500 7.57193057187500 
 S -5.83097135000000 0.482700290624998 5.82785457187500 
 S -5.74032935000000 4.17849129062500 6.15816357187500 
 S -2.82041435000000 0.984910290624999 3.17740057187500 
 S -2.77144235000000 4.96092629062500 3.37579257187500 
 S -3.38359435000000 0.928916290624999 7.31509457187500 
 S -3.43410535000000 5.30652729062500 7.45375557187500 
