16

 C -3.17004955937500 1.29187628750000 5.61712320625000 
 C -3.14390155937500 4.94866628750000 5.57369820625000 
 C -4.43617655937500 0.760838287500002 5.13705220625000 
 C -4.37566055937500 4.40648728750000 5.01421020625000 
 N -2.18188555937500 1.35212128750000 4.74650520625000 
 N -2.08248155937500 4.97975928750000 4.79676420625000 
 N -4.39209555937500 0.476243287500002 3.82593220625000 
 N -4.22802155937500 4.22710728750000 3.71045320625000 
 N -4.80312355937500 1.22991028750000 7.61255120625000 
 N -4.90612555937500 4.90639528750000 7.53825820625000 
 S -5.71736255937500 0.864700287500002 6.28482720625000 
 S -5.73148455937500 4.30804928750000 6.16531920625000 
 S -2.82807555937500 0.729221287500001 3.34558720625000 
 S -2.59868955937500 4.42844928750000 3.29549820625000 
 S -3.25720655937500 1.66559628750000 7.23076020625000 
 S -3.22396455937500 5.15726128750000 7.32491320625000 
