16

 C -3.02690764687500 1.37082859062500 5.32150386250000 
 C -3.26474164687500 5.17368159062500 5.66011186250000 
 C -4.31177964687500 0.982478590624999 4.80424286250000 
 C -4.46532064687500 4.71832859062500 5.02901986250000 
 N -2.07943664687500 1.34316959062500 4.37272986250000 
 N -2.25756764687500 5.36284559062500 4.87281286250000 
 N -4.35263264687500 0.625614590624999 3.51761886250000 
 N -4.31916364687500 4.57454259062500 3.70386086250000 
 N -4.80284764687500 1.52542159062500 7.18589886250000 
 N -4.85408364687500 4.83074759062500 7.60433286250000 
 S -5.66543564687500 1.05063559062500 5.82741386250000 
 S -5.75957964687500 4.56925759062500 6.26073786250000 
 S -2.80661464687500 0.745158590624999 2.91059086250000 
 S -2.74042764687500 4.97479359062500 3.31335186250000 
 S -3.14707364687500 1.73040259062500 7.05878586250000 
 S -3.18497164687500 5.24897759062500 7.36565686250000 
