16

 C -3.28649831562500 0.913772928125002 5.46667131875000 
 C -3.24512131562500 5.03705192812500 5.72663831875000 
 C -4.50215731562500 0.714767928125002 4.78208931875000 
 C -4.40596131562500 4.54144392812500 5.06717331875000 
 N -2.22335131562500 1.20074692812500 4.72278531875000 
 N -2.26273031562500 5.28053292812500 4.89434531875000 
 N -4.35336531562500 0.712984928125002 3.46651331875000 
 N -4.35025331562500 4.36842792812500 3.75412731875000 
 N -5.06675731562500 0.633678928125002 7.32648131875000 
 N -4.95095231562500 4.70263492812500 7.63820131875000 
 S -5.83290731562500 0.349792928125002 5.83259131875000 
 S -5.67540931562500 4.20659892812500 6.22909831875000 
 S -2.76243131562500 1.22920792812500 3.15214531875000 
 S -2.78306631562500 4.81348292812500 3.38527331875000 
 S -3.44873431562500 0.827736928125002 7.13804731875000 
 S -3.35407531562500 5.14938792812500 7.45023931875000 
