16

 C -3.20389147500000 0.935993953124998 5.51116987812500 
 C -3.22984047500000 4.74135495312500 5.63492287812500 
 C -4.36658247500000 0.686812953124998 4.76269287812500 
 C -4.53584347500000 4.48662695312500 5.04562187812500 
 N -2.19336947500000 1.36702995312500 4.76766887812500 
 N -2.21782747500000 4.90145695312500 4.80656887812500 
 N -4.25773447500000 0.786882953124998 3.45546087812500 
 N -4.48646347500000 4.35330395312500 3.72399187812500 
 N -5.11603347500000 0.501541953124998 7.13826887812500 
 N -4.92811247500000 4.88040495312500 7.56916887812500 
 S -5.71924347500000 0.149111953124998 5.58287587812500 
 S -5.78030447500000 4.37124695312500 6.19528487812500 
 S -2.70664247500000 1.34451895312500 3.19818187812500 
 S -2.90977047500000 4.72159295312500 3.31134287812500 
 S -3.43981347500000 0.793805953124998 7.22682987812500 
 S -3.27300147500000 4.99074495312500 7.42290387812500 
