16

 C -3.00532948437500 1.43600827500000 5.46632895312500 
 C -3.13502448437500 5.04296427500000 5.39868995312500 
 C -4.16515948437500 1.01071427500000 4.77435395312500 
 C -4.40112648437500 4.55339927500000 4.90602695312500 
 N -1.92625048437500 1.61187827500000 4.66522095312500 
 N -2.17086448437500 5.17677927500000 4.47542595312500 
 N -3.93900148437500 0.762168275000001 3.48809195312500 
 N -4.33136448437500 4.19644327500000 3.64537595312500 
 N -5.02063048437500 1.33296227500000 7.17912995312500 
 N -4.90501648437500 5.11975227500000 7.37020295312500 
 S -5.61604948437500 0.939939275000001 5.69860795312500 
 S -5.67803548437500 4.42100727500000 6.06019395312500 
 S -2.36564448437500 1.07942827500000 3.16237095312500 
 S -2.85518048437500 4.64535227500000 3.07818495312500 
 S -3.44642848437500 1.82603427500000 7.18607995312500 
 S -3.30384348437500 5.49165927500000 7.04904595312500 
