16

 C -3.07800348437500 1.08024746875000 5.47356427500000 
 C -3.16933048437500 4.80988046875000 5.45804827500000 
 C -4.26565648437500 0.657624468750000 4.78232127500000 
 C -4.44816148437500 4.69411846875000 4.83858327500000 
 N -2.11333248437500 1.33976946875000 4.61135727500000 
 N -2.09110148437500 4.77348746875000 4.69501327500000 
 N -4.16314748437500 0.599817468750000 3.45505827500000 
 N -4.35266448437500 4.41339146875000 3.56642727500000 
 N -4.91121248437500 0.588335468750000 7.30041927500000 
 N -4.81758848437500 5.05954846875000 7.41518127500000 
 S -5.57407948437500 0.288917468749999 5.80477127500000 
 S -5.71485648437500 4.95158946875000 6.03880427500000 
 S -2.64659048437500 0.954878468750000 3.04805727500000 
 S -2.77866448437500 4.48008446875000 3.18097227500000 
 S -3.27568848437500 1.05213146875000 7.21800727500000 
 S -3.17739648437500 4.87189146875000 7.15975427500000 
