16

 C -3.22245170625000 1.16218601875000 5.27405786562500 
 C -2.96663370625000 5.07301901875000 5.40821486562500 
 C -4.48512870625000 0.738212018749998 4.67262886562500 
 C -4.06840270625000 4.33006901875000 4.83473186562500 
 N -2.18689670625000 1.22198401875000 4.42599586562500 
 N -1.95438270625000 5.29113201875000 4.57212486562500 
 N -4.37054270625000 0.558210018749998 3.35984486562500 
 N -3.91482670625000 4.16341201875000 3.52282486562500 
 N -5.10726270625000 1.59044701875000 6.98644086562500 
 N -4.84061370625000 5.15033201875000 7.22473886562500 
 S -5.89054470625000 0.966982018749998 5.62236686562500 
 S -5.47939670625000 4.39128601875000 5.86385786562500 
 S -2.81575470625000 0.886605018749997 2.92787586562500 
 S -2.44357270625000 4.76638501875000 3.04584386562500 
 S -3.46017470625000 1.66965501875000 6.92710986562500 
 S -3.22650870625000 5.60987901875000 7.10362286562500 
