16

 C -3.22053803437500 1.24033866562500 5.70918577812500 
 C -3.14382303437500 5.24810266562500 5.57271677812500 
 C -4.47173303437500 1.05269066562500 5.11537977812500 
 C -4.33738903437500 4.75507466562500 4.94342177812500 
 N -2.19875803437500 1.28073166562500 4.85952177812500 
 N -2.21498903437500 5.56705666562500 4.68827077812500 
 N -4.45877003437500 0.758419665625000 3.81504177812500 
 N -4.28418003437500 4.56423966562500 3.64732677812500 
 N -4.94210103437500 1.44732166562500 7.60335077812500 
 N -4.99929603437500 5.05870466562500 7.44015077812500 
 S -5.75661903437500 1.13231266562500 6.22103477812500 
 S -5.71436803437500 4.51703666562500 5.98678877812500 
 S -2.86850303437500 0.941936665625001 3.35961977812500 
 S -2.74511403437500 5.06313066562500 3.20890577812500 
 S -3.31792103437500 1.48776666562500 7.48765877812500 
 S -3.29840003437500 5.43843766562500 7.33572877812500 
