16

 C -3.04526404687500 1.31095529687500 5.43921502812500 
 C -3.08246904687500 5.07812929687500 5.65473502812500 
 C -4.17762404687500 0.729541296874999 4.72634102812500 
 C -4.15193304687500 4.48776129687500 4.90988002812500 
 N -2.13473004687500 1.71676829687500 4.62157902812500 
 N -2.00202804687500 5.27169629687500 4.88639302812500 
 N -3.98851904687500 0.683224296874999 3.39321602812500 
 N -3.88235304687500 4.25054529687500 3.66309002812500 
 N -4.76636204687500 0.966214296874999 7.35531702812500 
 N -5.07154704687500 5.05930629687500 7.20615502812500 
 S -5.48116704687500 0.369878296874998 5.97973102812500 
 S -5.64371904687500 4.35870129687500 5.77982402812500 
 S -2.53308904687500 1.36224229687500 3.08879602812500 
 S -2.38771904687500 4.81950829687500 3.35981902812500 
 S -3.27016904687500 1.64874229687500 7.15421702812500 
 S -3.54553904687500 5.56044029687500 7.28505002812500 
