16

 C -3.54346133750000 1.54207032187500 5.33863941875000 
 C -3.28902633750000 4.99852932187500 5.77490541875000 
 C -4.62945133750000 1.00431232187500 4.56994741875000 
 C -4.51964833750000 4.62382832187500 5.12014741875000 
 N -2.49201033750000 1.89132432187500 4.63306541875000 
 N -2.31248933750000 5.10004632187500 4.95063941875000 
 N -4.44513533750000 0.986051321874998 3.23425341875000 
 N -4.52036833750000 4.51741232187500 3.80557741875000 
 N -5.21758833750000 0.891379321874998 7.09159341875000 
 N -5.08622733750000 4.96940532187500 7.63516841875000 
 S -6.00183233750000 0.670561321874998 5.63566941875000 
 S -5.85192233750000 4.61235932187500 6.18009441875000 
 S -2.88378133750000 1.59018132187500 3.07192241875000 
 S -2.85723133750000 4.79457032187500 3.43578641875000 
 S -3.79149133750000 1.68095032187500 7.06635441875000 
 S -3.40808233750000 5.16241632187500 7.51541741875000 
