16

 C -3.00231087500000 1.28594346874999 5.69480154375000 
 C -2.87904987500000 4.82152946874999 5.47539054375000 
 C -4.25354287500000 1.11582746874999 5.04315754375000 
 C -4.09452687500000 4.58426046874999 4.74167454375000 
 N -1.94936887500000 1.08530646874999 4.85968254375000 
 N -1.80954187500000 4.75903146874999 4.67537054375000 
 N -4.15654387500000 0.899939468749994 3.68674554375000 
 N -4.00295287500000 4.32360646874999 3.43502854375000 
 N -4.55626287500000 1.39207246875000 7.69129754375000 
 N -4.80520487500000 4.74814846874999 7.18582954375000 
 S -5.49129487500000 1.49503246874999 6.31759954375000 
 S -5.52400387500000 4.44631346874999 5.74083554375000 
 S -2.56112587500000 0.711173468749995 3.41774454375000 
 S -2.41916087500000 4.38381546874999 3.13998854375000 
 S -2.90695687500000 1.60339946874999 7.38749954375000 
 S -3.19283087500000 5.04841746874999 7.21353854375000 
