16

 C -3.10784052187500 1.12651041875000 5.41716609375000 
 C -2.76824252187500 5.15998241875000 5.42827809375000 
 C -4.42379152187500 0.712309418750003 4.92218209375000 
 C -4.00663552187500 4.88796041875000 4.72287109375000 
 N -2.18898852187500 1.10815941875000 4.47415409375000 
 N -1.69384752187500 5.35335841875000 4.65261609375000 
 N -4.47112852187500 0.494714418750003 3.63191909375000 
 N -3.82938052187500 4.66867741875000 3.41410609375000 
 N -4.77492552187500 1.05684241875000 7.42703409375000 
 N -4.68668352187500 4.84213341875000 7.17219109375000 
 S -5.71317452187500 0.805290418750003 6.06110109375000 
 S -5.44054452187500 4.64392241875000 5.65989609375000 
 S -2.94031152187500 0.720705418750003 3.02324209375000 
 S -2.26933252187500 5.11548841875000 3.10588109375000 
 S -3.21658952187500 1.57687941875000 7.11596109375000 
 S -3.06957152187500 5.33524541875000 7.14583409375000 
