16

 C -3.17577357187500 1.16185771875000 5.52979930937500 
 C -3.10722357187500 5.71300371875000 5.60132030937500 
 C -4.38801657187500 0.733521718750001 4.90742130937500 
 C -4.16897457187500 4.95002671875000 4.92949530937500 
 N -2.16271157187500 1.41322671875000 4.65343530937500 
 N -2.05312757187500 5.93446871875000 4.83041630937500 
 N -4.33306157187500 0.665085718750001 3.57329930937500 
 N -3.97612657187500 4.79808871875000 3.65690230937500 
 N -5.08804657187500 1.25187971875000 7.35151430937500 
 N -4.84302157187500 5.06925771875000 7.37902630937500 
 S -5.83044257187500 0.747073718750001 5.93154630937500 
 S -5.53802457187500 4.46377371875000 5.98069130937500 
 S -2.74111057187500 1.01544271875000 3.15539630937500 
 S -2.47360357187500 5.40296471875000 3.30351930937500 
 S -3.43338457187500 1.47410771875000 7.27169330937500 
 S -3.43888057187500 5.91189071875000 7.27453130937500 
