16

 C -3.25053347812500 1.65185910000000 5.38619763437500 
 C -3.03606047812500 4.95358610000000 5.52761763437500 
 C -4.41409547812500 1.29114010000000 4.67469963437500 
 C -4.27559247812500 4.59695810000000 4.86781163437500 
 N -2.19545247812500 1.90553210000000 4.62982763437500 
 N -1.96284647812500 5.09060410000000 4.72500463437500 
 N -4.26275147812500 1.21380110000000 3.35693363437500 
 N -4.16719747812500 4.53975410000000 3.54730963437500 
 N -4.93113847812500 1.06723910000000 7.22874363437500 
 N -4.82827647812500 4.86231810000000 7.28893563437500 
 S -5.69800847812500 0.935151100000001 5.72279763437500 
 S -5.72736547812500 4.62998110000000 5.91068663437500 
 S -2.65493247812500 1.65020410000000 3.04834763437500 
 S -2.57970047812500 4.92755310000000 3.19080363437500 
 S -3.38649947812500 1.67835510000000 7.14869563437500 
 S -3.20133247812500 5.09535310000000 7.22153963437500 
