16

 C -3.01142071875000 1.28559957812500 5.45776186562500 
 C -2.92956671875000 5.15812557812500 5.67546286562500 
 C -4.23272171875000 0.946677578125004 4.78100986562500 
 C -4.20066371875000 4.79982157812500 5.03085786562500 
 N -1.91151271875000 1.33516557812500 4.71162186562500 
 N -1.95324271875000 5.27658357812500 4.78245386562500 
 N -4.06115371875000 0.693812578125004 3.47540986562500 
 N -4.12592371875000 4.55326957812500 3.71478386562500 
 N -4.83604971875000 1.31143357812500 7.32990286562500 
 N -4.86235871875000 5.07027957812500 7.39210986562500 
 S -5.66481971875000 1.06060157812500 5.87508586562500 
 S -5.61733071875000 4.80418457812500 5.97380186562500 
 S -2.39266971875000 0.848252578125003 3.23055986562500 
 S -2.54112671875000 4.93950057812500 3.28359786562500 
 S -3.15345871875000 1.64156857812500 7.17149886562500 
 S -3.21638771875000 5.45065857812500 7.47746986562500 
