16

 C -3.73861510312500 1.22258353125000 5.60621788750000 
 C -3.02465110312500 5.04569053125000 5.37504788750000 
 C -4.81815510312500 0.556121531249999 4.98035888750000 
 C -4.21938110312500 4.44710453125000 4.82948088750000 
 N -2.68993710312500 1.45323353125000 4.85780388750000 
 N -2.02438010312500 5.11533353125000 4.49459888750000 
 N -4.64242210312500 0.349705531249998 3.71504588750000 
 N -4.14652210312500 4.05446653125000 3.56592988750000 
 N -5.39944710312500 0.562643531249998 7.37981788750000 
 N -4.72090110312500 4.88571453125000 7.31754088750000 
 S -6.17139810312500 0.178806531249998 5.90267988750000 
 S -5.48076610312500 4.33239853125000 5.93116788750000 
 S -3.16047510312500 1.03343353125000 3.33476588750000 
 S -2.63287110312500 4.56217653125000 3.04586188750000 
 S -3.83886410312500 1.16714853125000 7.32255188750000 
 S -3.12686610312500 5.42414353125000 7.11058888750000 
