16

 C -3.31806472812500 1.24327875312500 5.18524184375000 
 C -3.00681072812500 5.07472275312500 5.40610584375000 
 C -4.52638372812500 0.790746753125001 4.51093284375000 
 C -4.21392572812500 4.49407775312500 4.82472184375000 
 N -2.19818572812500 1.33546475312500 4.45887084375000 
 N -1.96765272812500 5.26544975312500 4.61237084375000 
 N -4.32722472812500 0.566532753125001 3.19639084375000 
 N -3.94906272812500 3.96816275312500 3.63047684375000 
 N -5.14891172812500 1.31905875312500 7.01213384375000 
 N -4.85185072812500 5.07423275312500 7.22214584375000 
 S -5.91347672812500 0.856182753125001 5.62028584375000 
 S -5.55419572812500 4.44689875312500 5.85985584375000 
 S -2.71880172812500 0.918858753125001 2.93651584375000 
 S -2.44103272812500 4.52394975312500 3.19184584375000 
 S -3.53400572812500 1.73102175312500 6.86829784375000 
 S -3.26546172812500 5.54160475312500 7.02419184375000 
