16

 C -3.20238269375000 1.49558140000000 5.41269582500000 
 C -3.03462269375000 5.31134940000000 5.69971682500000 
 C -4.32037769375000 0.891165400000003 4.72642782500000 
 C -4.31852369375000 5.00275640000000 5.10399282500000 
 N -2.18601669375000 1.79966540000000 4.52165082500000 
 N -2.01446369375000 5.37709740000000 4.84958982500000 
 N -4.24678269375000 0.893373400000002 3.37383682500000 
 N -4.32533269375000 4.88598740000000 3.76698682500000 
 N -4.89825969375000 0.812362400000002 7.22168782500000 
 N -4.56867069375000 4.91825740000000 7.74959782500000 
 S -5.49894469375000 0.287739400000003 5.77926082500000 
 S -5.47688669375000 4.79645840000000 6.42694082500000 
 S -2.75343669375000 1.38318040000000 3.00828182500000 
 S -2.70853369375000 5.16174640000000 3.36551082500000 
 S -3.46245069375000 1.59876440000000 7.16962482500000 
 S -3.01066269375000 5.47037240000000 7.43864982500000 
