16

 C -3.04225054062500 1.10053128437500 5.48794478125000 
 C -3.08922754062500 5.06359928437500 5.54972378125000 
 C -4.20668754062500 0.628134284374998 4.81565578125000 
 C -4.35600054062500 4.84306928437500 4.89371278125000 
 N -1.94975754062500 1.10248928437500 4.73100178125000 
 N -1.98921554062500 5.00664328437500 4.78936078125000 
 N -3.98151254062500 0.322561284374998 3.55132878125000 
 N -4.18185154062500 4.69615528437500 3.53587278125000 
 N -5.07363854062500 1.20725628437500 7.10603978125000 
 N -4.85120454062500 5.20442528437500 7.34335878125000 
 S -5.63483954062499 0.483730284374998 5.71046378125000 
 S -5.69783054062500 4.74361328437500 6.01566878125000 
 S -2.46102354062500 0.668977284374998 3.16351978125000 
 S -2.58616354062500 4.74552728437500 3.22775278125000 
 S -3.41150454062500 1.37583128437500 7.19756778125000 
 S -3.20634554062500 5.46317828437500 7.22097878125000 
