16

 C -3.09637109687500 1.82484471562500 5.78912815000000 
 C -3.03890109687500 5.26576571562500 5.65923615000000 
 C -4.37082609687500 1.54679971562500 5.14759815000000 
 C -4.30470609687500 4.93525271562500 5.03826715000000 
 N -2.09122209687500 1.80698971562500 4.91627115000000 
 N -2.05578209687500 5.45508071562500 4.80009215000000 
 N -4.32759809687500 1.55992471562500 3.80182915000000 
 N -4.28543509687500 4.98707271562500 3.70978315000000 
 N -4.80358209687500 1.47870071562500 7.67927915000000 
 N -4.84268809687500 4.99106971562500 7.57489415000000 
 S -5.69817809687500 1.33953071562500 6.23057615000000 
 S -5.65957009687500 4.71343871562500 6.14166315000000 
 S -2.68917109687500 1.67585071562500 3.34356615000000 
 S -2.71291509687500 5.25659971562500 3.28009515000000 
 S -3.19871209687500 1.87152571562500 7.50244015000000 
 S -3.21054009687500 5.30568471562500 7.37192715000000 
