16

 C -3.29247326562500 1.14369291250000 5.97746613125000 
 C -2.90923126562500 4.67364791250000 5.28368513125000 
 C -4.44109426562500 0.607681912500000 5.19375413125000 
 C -4.22976226562500 4.45633491250000 4.74323313125000 
 N -2.27855326562500 1.47840091250000 5.18747613125000 
 N -1.92386726562500 4.85653791250000 4.40532313125000 
 N -4.25952526562500 0.704535912500000 3.86615213125000 
 N -4.23364826562500 4.47661591250000 3.42504913125000 
 N -4.95658026562500 0.435722912500000 7.69322013125000 
 N -4.68333126562500 4.54678391250000 7.24707913125000 
 S -5.76851726562500 0.318327912500000 6.24851213125000 
 S -5.56117326562500 4.52162491250000 5.85660213125000 
 S -2.68393126562500 1.29785891250000 3.60466313125000 
 S -2.69788026562500 4.72185091250000 2.90476113125000 
 S -3.50332426562500 1.31118691250000 7.67675713125000 
 S -3.04784526562500 4.84055991250000 7.06395113125000 
