16

 C -3.39154907500000 1.44611245625000 5.49410506875000 
 C -3.30266907500000 4.99385845625000 5.17230706875000 
 C -4.57008307500000 0.951811456250002 4.91934206875000 
 C -4.43686807500000 4.35971445625000 4.54965906875000 
 N -2.37143707500000 1.60630945625000 4.64847506875000 
 N -2.33757807500000 5.32454645625000 4.33611706875000 
 N -4.51350907500000 0.725981456250002 3.61017106875000 
 N -4.24082007500000 4.01898645625000 3.29003706875000 
 N -5.05653607500000 1.40445645625000 7.52437106875000 
 N -5.03834207500000 4.81107345625000 7.01100406875000 
 S -5.85480007500000 0.854283456250002 6.14218506875000 
 S -5.66980407500000 3.96627045625000 5.73769706875000 
 S -2.87864507500000 1.05611545625000 3.16694506875000 
 S -2.77792507500000 4.68848545625000 2.84172006875000 
 S -3.38806107500000 1.70539145625000 7.22615806875000 
 S -3.55544107500000 5.49682845625000 6.81864906875000 
