16

 C -3.31557572500000 0.850894128125002 5.45820208125000 
 C -3.27489772500000 5.18732012812500 5.49730108125000 
 C -4.51849772500000 0.573613128125002 4.76070508125000 
 C -4.43453772500000 4.64751012812500 4.77313108125000 
 N -2.24236672500000 1.13359412812500 4.70855608125000 
 N -2.20342172500000 5.41046712812500 4.67514008125000 
 N -4.37109172500000 0.626901128125002 3.43412608125000 
 N -4.31522472500000 4.57290312812500 3.45629608125000 
 N -5.12323772500000 0.736723128125002 7.22449708125000 
 N -5.01279472500000 4.51643312812500 7.27419008125000 
 S -5.89296672500000 0.579947128125002 5.77314308125000 
 S -5.74264172500000 4.05083012812500 5.81249208125000 
 S -2.78155172500000 0.927393128125002 3.13105108125000 
 S -2.79922472500000 5.08726312812500 3.12051408125000 
 S -3.49083172500000 0.898973128125002 7.19510808125000 
 S -3.57754072500000 5.35801912812500 7.22052708125000 
