16

 C -3.29145631562500 1.04513134062500 5.63939224062500 
 C -2.84871331562500 4.96077234062500 5.50571824062500 
 C -4.41409931562500 0.565870340625003 4.90827724062500 
 C -4.05874731562500 4.48873234062500 4.84266724062500 
 N -2.24719731562500 1.35001334062500 4.89363024062500 
 N -1.89575631562500 5.32892234062500 4.64826424062500 
 N -4.19959131562500 0.375288340625003 3.59202024062500 
 N -3.88152831562500 4.25807234062500 3.54231624062500 
 N -5.16015731562500 0.758007340625003 7.47517524062500 
 N -4.66806731562500 4.72206134062500 7.30611924062500 
 S -5.84381431562500 0.353500340625003 6.00661624062500 
 S -5.48762431562500 4.35904334062500 5.94791224062500 
 S -2.62933031562500 0.897948340625003 3.34863524062500 
 S -2.38590131562500 4.91193034062500 3.15902524062500 
 S -3.55116531562500 1.03219034062500 7.43532824062500 
 S -3.12437531562500 5.18667834062500 7.22393724062500 
