16

 C -3.17026537500000 1.23795193125000 5.56826110625000 
 C -3.06500337500000 5.05515093125000 5.61432210625000 
 C -4.40240937500000 0.847934931250003 5.00238310625000 
 C -4.29039937500000 4.61391493125000 4.98435610625000 
 N -2.14340937500000 1.38067293125000 4.77037010625000 
 N -2.08416437500000 5.36108493125000 4.77127110625000 
 N -4.27979537500000 0.578035931250003 3.72892410625000 
 N -4.21580337500000 4.51381793125000 3.65831710625000 
 N -4.96782237500000 1.15383293125000 7.41542310625000 
 N -4.83108437500000 4.66187093125000 7.44318910625000 
 S -5.70229837500000 0.558629931250003 6.04836510625000 
 S -5.62600837500000 4.36734493125000 5.99527910625000 
 S -2.78376337500000 1.07593693125000 3.26590610625000 
 S -2.73731137500000 5.04497893125000 3.19336310625000 
 S -3.32555637500000 1.49187393125000 7.23242610625000 
 S -3.21801837500000 5.18384493125000 7.34814010625000 
