16

 C -3.21097646875000 0.924171450000000 5.66285180937500 
 C -3.02379346875000 5.11639745000000 5.44318280937500 
 C -4.39575746875000 0.574089450000001 4.95715880937500 
 C -4.15455646875000 4.51467745000000 4.76266080937500 
 N -2.09691146875000 1.14012845000000 4.97439580937500 
 N -1.95552946875000 5.28595245000000 4.71798480937500 
 N -4.20479846875000 0.427308450000001 3.64058180937500 
 N -3.93542046875000 4.30798345000000 3.46943880937500 
 N -5.14034046875000 0.761981450000000 7.36654280937500 
 N -4.80245946875000 4.79267745000000 7.30350880937500 
 S -5.84611346875000 0.326149450000001 5.86666780937500 
 S -5.47949846875000 4.28878145000000 5.83692480937500 
 S -2.63255646875000 0.956547450000000 3.38204680937500 
 S -2.37478246875000 4.79775345000000 3.16384880937500 
 S -3.50082346875000 0.973208450000000 7.33494380937500 
 S -3.09498946875000 5.16697945000000 7.15951980937500 
