16

 C -3.12909908125000 1.41249894375000 5.44284442812500 
 C -3.35419508125000 5.30702394375000 5.18695142812500 
 C -4.25044508125000 0.753721943749999 4.93041142812500 
 C -4.33759308125000 4.38623594375000 4.68550142812500 
 N -2.18340108125000 1.65965094375000 4.56951842812500 
 N -2.38035308125000 5.61966794375000 4.31286042812500 
 N -4.18024508125000 0.531212943749999 3.65580642812500 
 N -4.10303208125000 4.01792394375000 3.42978242812500 
 N -4.79312008125000 1.26615294375000 7.40766642812500 
 N -5.20301208125000 4.93665394375000 6.99791642812500 
 S -5.54426608125000 0.632388943749999 6.05334342812500 
 S -5.72991908125000 4.10603494375000 5.63077042812500 
 S -2.64515108125000 1.07336394375000 3.11251642812500 
 S -2.71331508125000 4.72063994375000 2.93304442812500 
 S -3.21738008125000 1.74534094375000 7.11515442812500 
 S -3.71788408125000 5.69225994375000 6.87864242812500 
