16

 C -2.88667910312500 1.20076788437501 5.49582227187500 
 C -3.04951310312500 5.19051288437501 5.63832127187500 
 C -4.12149510312500 0.952935884375005 4.78875327187500 
 C -4.18795910312500 4.58703588437501 4.95243327187500 
 N -1.80629610312500 1.28381288437501 4.70334227187500 
 N -1.97954110312500 5.40395588437501 4.86277527187500 
 N -3.98226510312500 0.684943884375006 3.49505727187500 
 N -3.98210610312500 4.34276688437501 3.66756727187500 
 N -4.62744710312500 1.18820088437501 7.29743127187500 
 N -4.72280110312500 4.77206888437501 7.51303427187500 
 S -5.40761010312500 0.814184884375006 5.91930627187500 
 S -5.49841410312500 4.27825788437501 6.10091827187500 
 S -2.35748610312500 1.14590588437501 3.14805527187500 
 S -2.40929110312500 4.93980288437501 3.34717727187500 
 S -2.99279410312500 1.44260988437501 7.18136227187500 
 S -3.21127310312500 5.40099488437501 7.33165127187500 
