16

 C -3.22043414375000 1.11285401875000 5.53273195000000 
 C -3.36481914375000 4.76129501875000 5.50012895000000 
 C -4.29598914375000 0.608966018750000 4.68122795000000 
 C -4.65182814375000 4.71411301875000 4.89795095000000 
 N -2.12134714375000 1.51968201875000 4.89018495000000 
 N -2.32496314375000 4.75886001875000 4.65594695000000 
 N -4.04732014375000 0.716308018750000 3.37621195000000 
 N -4.58072214375000 4.55977801875000 3.58471995000000 
 N -4.91542214375000 0.202846018750000 7.17261295000000 
 N -4.98300414375000 4.65279001875000 7.41714295000000 
 S -5.65894414375000 5.446001875000039E-002 5.65778895000000 
 S -5.88292914375000 4.60193501875000 6.07564895000000 
 S -2.53010614375000 1.33850501875000 3.31582995000000 
 S -2.97242014375000 4.62572401875000 3.15307195000000 
 S -3.47229114375000 1.01502301875000 7.25129795000000 
 S -3.32968514375000 4.82856001875000 7.26684895000000 
