16

 C -3.37802384687500 1.56419958750000 5.49193962500000 
 C -3.10113884687500 5.50280058750000 5.60291362500000 
 C -4.50855384687500 0.931859587499999 4.81501062500000 
 C -4.27178084687500 4.91362958750000 4.98697362500000 
 N -2.31954984687500 1.78428858750000 4.64729062500000 
 N -2.14124984687500 5.88641758750000 4.78867662500000 
 N -4.28729484687500 0.729132587499999 3.51865362500000 
 N -4.13757084687500 4.85611158750000 3.67054562500000 
 N -5.21670784687500 1.23154358750000 7.21795962500000 
 N -4.80499484687500 5.10623958750000 7.50232162500000 
 S -5.93387184687500 0.729362587499999 5.79762062500000 
 S -5.55116584687500 4.60747758750000 6.11406962500000 
 S -2.64131884687500 1.09258558750000 3.17143262500000 
 S -2.71380584687500 5.49178358750000 3.26661962500000 
 S -3.67102684687500 1.85361858750000 7.16947762500000 
 S -3.18318984687500 5.62984858750000 7.34667662500000 
