16

 C -3.05275081250000 1.27070970625000 5.77369054062500 
 C -2.93961381250000 4.79337370625000 5.44483554062500 
 C -4.41035581250000 1.07076470625000 5.29105354062500 
 C -4.21022981250000 4.63238770625000 4.79366954062500 
 N -2.15908181250000 1.01038370625000 4.79550254062500 
 N -1.84115481250000 4.83360970625000 4.66368754062500 
 N -4.56732081250000 0.619129706250001 4.07896854062500 
 N -4.11339081250000 4.64835270625000 3.43834854062500 
 N -4.65295281250000 1.75032770625000 7.70167854062500 
 N -4.63777981250000 4.55921670625000 7.44130854062500 
 S -5.63385881250000 1.23699570625000 6.50769854062500 
 S -5.50709281250000 4.45356570625000 5.94981154062500 
 S -3.04251081250000 0.603331706250002 3.43142354062500 
 S -2.45544781250000 4.76407070625000 3.15226954062500 
 S -3.03887681250000 1.81075970625000 7.44336554062500 
 S -2.97902481250000 4.89308970625000 7.17539254062500 
