16

 C -2.90224310937500 1.65373800937500 5.75581014687500 
 C -3.11754910937500 5.33824400937500 5.70133414687500 
 C -4.18140710937500 1.45101400937500 5.11336014687500 
 C -4.36681810937500 4.88369800937500 5.13500714687500 
 N -1.87791310937500 1.77418500937500 4.89154214687500 
 N -2.10839410937500 5.34885000937500 4.80583014687500 
 N -4.15570010937500 1.55886200937500 3.77645514687500 
 N -4.38207710937500 4.76324500937500 3.81523114687500 
 N -4.67269410937500 1.66177800937500 7.63127614687500 
 N -4.85572310937500 5.26732500937500 7.63780114687500 
 S -5.46823510937500 1.45214400937500 6.16753614687500 
 S -5.62143110937500 4.80452000937500 6.23717014687500 
 S -2.61941110937500 1.83290800937500 3.40447514687500 
 S -2.85747010937500 5.04712700937500 3.30289614687500 
 S -2.98331110937500 1.81615900937500 7.49189214687500 
 S -3.20293510937500 5.57260900937500 7.42285114687500 
