16

 C -3.09683836875000 1.30594899375000 5.66335780625000 
 C -3.02538736875000 4.94944699375000 5.39097280625000 
 C -4.30960936875000 0.915814993750001 5.00219880625000 
 C -4.19755336875000 4.33396199375000 4.91093380625000 
 N -2.04428036875000 1.32789099375000 4.85314380625000 
 N -1.94981536875000 4.94899899375000 4.59085680625000 
 N -4.19300436875000 0.705525993750001 3.66122280625000 
 N -4.04227936875000 3.90476199375000 3.64897080625000 
 N -4.78081836875000 1.21910299375000 7.54965580625000 
 N -4.73647136875000 5.03765999375000 7.40313280625000 
 S -5.61301036875000 0.836278993750001 6.21113680625000 
 S -5.46274836875000 4.29517099375000 6.08561380625000 
 S -2.59336736875000 0.933826993750001 3.29069780625000 
 S -2.49870336875000 4.31726599375000 3.16190980625000 
 S -3.11844036875000 1.56259299375000 7.43023580625000 
 S -3.12233436875000 5.35115999375000 7.06862880625000 
