16

 C -2.87213555937500 1.72722843437501 5.72996750000000 
 C -3.32715755937500 5.42028843437501 5.33466950000000 
 C -4.17040355937500 1.57542643437501 5.04425250000000 
 C -4.53539055937500 4.91506543437501 4.73739950000000 
 N -1.83857855937500 1.91330843437501 4.88859450000000 
 N -2.32472155937500 5.68132243437501 4.48923150000000 
 N -4.14239555937500 1.56238743437501 3.71586550000000 
 N -4.49988855937500 4.85068543437501 3.38003550000000 
 N -4.67811855937500 1.65636543437501 7.59364450000000 
 N -4.94256155937500 5.08291043437501 7.32494050000000 
 S -5.50202055937500 1.42090743437501 6.16371050000000 
 S -5.66105355937500 4.45941843437500 5.97686850000000 
 S -2.57323455937500 1.75649843437501 3.36488650000000 
 S -2.91852455937500 5.31663243437501 3.02015950000000 
 S -2.99783855937500 1.83424043437500 7.43411350000000 
 S -3.42865655937500 5.69719143437501 7.01472850000000 
