16

 C -3.09906923750000 1.47042508437500 5.38669454062500 
 C -3.38855623750000 5.27101408437500 5.26058254062500 
 C -4.25614923750000 0.769027084374995 4.88847654062500 
 C -4.38403823750000 4.42299908437500 4.63571654062500 
 N -2.14930023750000 1.72194408437500 4.48470454062500 
 N -2.45606223750000 5.67369808437499 4.40956954062500 
 N -4.20190623750000 0.398760084374996 3.60584454062500 
 N -4.17028123750000 4.07232508437500 3.37139654062500 
 N -4.77678623750000 1.30114408437500 7.40770454062500 
 N -5.18922723750000 4.92684108437500 7.02666854062500 
 S -5.54338623750000 0.589044084374995 6.15470154062500 
 S -5.70018223750000 4.11175008437500 5.68095754062500 
 S -2.80063623750000 1.00138908437500 3.05857054062500 
 S -2.75100223750000 4.87987008437500 2.98855854062500 
 S -3.23628423750000 1.79414008437500 7.19153054062500 
 S -3.67004023750000 5.62765508437500 6.91320254062500 
