16

 C -3.08460950000000 1.26453656250001 5.43903323125000 
 C -3.09318650000000 5.05597056250001 5.63769423125000 
 C -4.21257950000000 0.682762562500006 4.72344723125000 
 C -4.15070950000000 4.50912456250001 4.91974223125000 
 N -2.13726050000000 1.73846056250001 4.63522223125000 
 N -1.99225550000000 5.26758656250001 4.89362623125000 
 N -3.99122550000000 0.698975562500006 3.39071523125000 
 N -3.88668050000000 4.27744056250001 3.66859123125000 
 N -4.76563050000000 0.964812562500006 7.33996423125000 
 N -5.09203050000000 5.08242756250000 7.20023723125000 
 S -5.50964050000000 0.366906562500006 5.99111223125000 
 S -5.62810350000000 4.33723256250001 5.75684523125000 
 S -2.52528950000000 1.36530556250001 3.10283923125000 
 S -2.41315650000000 4.82886556250001 3.34875223125000 
 S -3.28648050000000 1.63836256250001 7.15370723125000 
 S -3.55447950000000 5.57702756250000 7.29884623125000 
