16

 C -2.90449368750000 1.64076198750000 5.42997013437500 
 C -3.14062568750000 5.17641498750000 5.52931113437500 
 C -4.17296768750000 1.50976098750000 4.78611513437500 
 C -4.33480868750000 4.69280498750000 4.86133813437500 
 N -1.89593268750000 1.58740298750000 4.59062513437500 
 N -2.09845768750000 5.35424298750000 4.74470813437500 
 N -4.07870868750000 1.33502898750000 3.46355813437500 
 N -4.11463168750000 4.35565398750000 3.58487413437500 
 N -4.66588068750000 1.67953498750000 7.33023513437500 
 N -4.97142368750000 5.02527198750000 7.33417113437500 
 S -5.50278468750000 1.39227198750000 5.92941613437500 
 S -5.71493968750000 4.67820698750000 5.89370313437500 
 S -2.42621468750000 1.26279998750000 3.05998213437500 
 S -2.56901368750000 4.78505798750000 3.20617613437500 
 S -3.02856668750000 1.95153098750000 7.13286113437500 
 S -3.36238968750000 5.26929998750000 7.21469713437500 
