16

 C -3.12092401562500 1.45202656250000 5.59435780000000 
 C -3.32475301562500 5.05723956250000 5.27336880000000 
 C -4.24053001562500 1.04626556250000 4.79969580000000 
 C -4.42521901562500 4.37088656250000 4.62477280000000 
 N -1.99789201562500 1.64544856250000 4.90674780000000 
 N -2.24987401562500 5.25346756250000 4.49786380000000 
 N -3.93516501562500 0.786629562500003 3.52548080000000 
 N -4.08808501562500 3.92756856250000 3.40030280000000 
 N -5.08735701562500 1.22507756250000 7.25702080000000 
 N -5.29479201562500 5.34908956250000 6.83274580000000 
 S -5.72466701562500 0.959997562500003 5.78512080000000 
 S -5.88032001562500 4.40654856250000 5.59345080000000 
 S -2.36806501562500 1.19533256250000 3.31658880000000 
 S -2.58533801562500 4.41793056250000 3.11428380000000 
 S -3.47865601562500 1.64531156250000 7.26077680000000 
 S -3.67441801562500 5.64163056250000 6.86257080000000 
