16

 C -2.90339033437500 1.34307449375000 5.79636696875000 
 C -3.23623733437500 4.96912349375000 5.67580196875000 
 C -4.16705233437500 1.26280949375000 5.18664196875000 
 C -4.48882833437500 4.82049549375000 4.99664196875000 
 N -1.86714633437500 1.42930849375000 5.00992396875000 
 N -2.16982033437500 4.99148049375000 4.84498596875000 
 N -4.06259333437500 1.23983549375000 3.89474296875000 
 N -4.42549133437500 4.75825349375000 3.67448196875000 
 N -4.60557733437500 1.43570449375000 7.65958896875000 
 N -5.07218733437500 4.80197749375000 7.48726296875000 
 S -5.47548533437500 1.25274149375000 6.26306096875000 
 S -5.85617333437500 4.58197949375000 5.99810096875000 
 S -2.45549133437500 1.31142649375000 3.43763996875000 
 S -2.86156133437500 4.87114349375000 3.24697896875000 
 S -2.94719033437500 1.56651349375000 7.47050596875000 
 S -3.42167133437500 5.09423949375000 7.44715696875000 
