16

 C -3.16893614687500 0.942995109375002 5.62612643125000 
 C -3.20184914687500 4.87870610937500 5.33787943125000 
 C -4.40098314687500 0.766321109375002 4.90641243125000 
 C -4.39968014687500 4.41706410937500 4.62273843125000 
 N -2.10531414687500 0.977533109375002 4.87370943125000 
 N -2.15044514687500 5.01836510937500 4.58158343125000 
 N -4.21287714687500 0.820532109375002 3.58498743125000 
 N -4.23853814687500 4.26474610937500 3.31120343125000 
 N -4.96786314687500 0.641106109375002 7.35759343125000 
 N -4.92144614687500 4.67832210937500 7.12535343125000 
 S -5.78125914687500 0.413003109375002 5.91818343125000 
 S -5.67736814687500 4.13855810937500 5.78810643125000 
 S -2.58362714687500 0.931635109375001 3.28888143125000 
 S -2.64757014687500 4.70438310937500 3.02123043125000 
 S -3.32015714687500 0.897457109375002 7.31881543125000 
 S -3.46324214687500 5.38231410937500 6.97750643125000 
