16

 C -3.08905886562500 1.21642033750000 5.80226045937500 
 C -3.18549086562500 5.02820033750000 5.47701945937500 
 C -4.21257886562500 0.632171337500000 5.17435645937500 
 C -4.42083186562500 4.52222733750000 4.87767445937500 
 N -2.04168086562500 1.39193533750000 5.02398445937500 
 N -2.17641186562500 5.27670233750000 4.65856245937500 
 N -4.03585886562500 0.406810337499999 3.87845745937500 
 N -4.23964086562500 4.26000233750000 3.61109445937500 
 N -4.69961886562500 0.811838337499999 7.63754245937500 
 N -4.84585386562500 4.50433233750000 7.36998345937500 
 S -5.51464286562500 0.428497337499999 6.27932645937500 
 S -5.69400786562500 4.20630433750000 6.00021845937500 
 S -2.40787486562500 0.761561337499999 3.56535245937500 
 S -2.73994586562500 4.78810033750000 3.17258545937500 
 S -3.16036486562500 1.43132133750000 7.48592945937500 
 S -3.36925286562500 5.26819833750000 7.15254345937500 
