16

 C -2.94224012187500 1.46204695937500 5.80508835000000 
 C -3.19178712187500 4.60112495937500 5.60821035000000 
 C -4.21608112187500 1.22823595937500 5.14108235000000 
 C -4.45571612187500 4.48016295937500 4.90046535000000 
 N -1.95665812187500 1.52513295937500 4.92244835000000 
 N -2.10577212187500 4.67530395937500 4.86286035000000 
 N -4.10213912187500 0.975985959375000 3.84965535000000 
 N -4.32887412187500 4.54158995937500 3.57224335000000 
 N -4.73542512187500 1.51555995937500 7.62321735000000 
 N -4.93122812187500 4.58753795937500 7.46208935000000 
 S -5.51839512187500 1.24917095937500 6.20952635000000 
 S -5.74979212187500 4.34472195937500 6.02777535000000 
 S -2.53833912187500 1.26751295937500 3.33840835000000 
 S -2.70441112187500 4.62241295937500 3.29224635000000 
 S -3.11372212187500 1.66350295937500 7.49317635000000 
 S -3.30886012187500 4.87410095937500 7.25195435000000 
