16

 C -3.26386456250000 1.52349500312500 5.62365474687500 
 C -3.52682156250000 5.31753400312500 5.57575274687500 
 C -4.48038856250000 0.994273003125001 5.04355974687500 
 C -4.62103456250000 4.61539700312500 4.88994274687500 
 N -2.31117356250000 1.74634000312500 4.76110774687500 
 N -2.54770456250000 5.64478200312500 4.79024374687500 
 N -4.42953156250000 0.814840003125002 3.72372174687500 
 N -4.44712856250000 4.42081900312500 3.59329174687500 
 N -4.92686156250000 1.08637200312500 7.55722374687500 
 N -5.26783956250000 4.79815000312500 7.48400974687500 
 S -5.75069056250000 0.683044003125001 6.19239274687500 
 S -5.92645256250000 4.23571300312500 6.03639674687500 
 S -2.92155456250000 1.46444700312500 3.27611874687500 
 S -2.96758256250000 5.16016100312500 3.21547774687500 
 S -3.34071556250000 1.51158100312500 7.33873874687500 
 S -3.73050756250000 5.47858100312500 7.33018674687500 
