16

 C -3.23022658437500 1.45040667187501 5.27405273750000 
 C -3.16103658437500 5.34791667187501 5.51479173750000 
 C -4.40737758437500 0.850249671875006 4.66065273750000 
 C -4.33872158437500 4.73126967187501 4.99410873750000 
 N -2.23907858437500 1.86110567187501 4.49858073750000 
 N -2.19836158437500 5.64816567187501 4.61340373750000 
 N -4.37783058437500 0.863244671875006 3.33092573750000 
 N -4.33753058437500 4.50254167187501 3.67931473750000 
 N -4.82815358437500 0.775402671875006 7.26262273750000 
 N -4.87330358437500 4.93702667187501 7.50515873750000 
 S -5.64359758437500 0.432862671875006 5.82231273750000 
 S -5.66415658437500 4.53303167187501 6.07991273750000 
 S -2.88404258437500 1.49787767187501 2.98225573750000 
 S -2.85702258437500 5.12926167187501 3.13450773750000 
 S -3.31725958437500 1.48569067187501 7.02525673750000 
 S -3.32645558437500 5.45923867187501 7.29206673750000 
