16

 C -3.18883842187500 1.71442743125000 5.40531812187500 
 C -3.08751442187500 4.94647143125000 5.57643712187500 
 C -4.41018542187500 1.32708843125000 4.75726012187500 
 C -4.26419142187500 4.56869843125000 4.87753912187500 
 N -2.12744242187500 1.85923743125000 4.58412012187500 
 N -2.05226142187500 5.15209443125000 4.75194312187500 
 N -4.30602342187500 1.26158143125000 3.44323012187500 
 N -4.16745842187500 4.40545443125000 3.57020412187500 
 N -4.96907142187500 1.13487343125000 7.20257412187500 
 N -4.89961942187500 4.69723143125000 7.47932712187500 
 S -5.75348842187500 0.921454431249999 5.78631812187500 
 S -5.57167442187500 4.53057943125000 5.94177312187500 
 S -2.75034242187500 1.61907543125000 3.06526812187500 
 S -2.60689342187500 4.77711643125000 3.22767412187500 
 S -3.34269342187500 1.70218143125000 7.16370512187500 
 S -3.32176242187500 5.28054843125000 7.30812412187500 
