16

 C -3.09871408437500 1.44011991875000 5.46999463437500 
 C -3.26940008437500 5.02834591875000 5.58132863437500 
 C -4.32088408437500 0.968620918750004 4.89024463437500 
 C -4.43541308437500 4.59355291875000 4.88186163437500 
 N -2.18907708437500 1.67314891875000 4.55672963437500 
 N -2.24754408437500 5.37297791875000 4.82340563437500 
 N -4.21200808437500 0.706352918750004 3.57773463437500 
 N -4.29183108437500 4.58227291875000 3.53158663437500 
 N -4.72137708437500 1.10793891875000 7.46607963437500 
 N -4.97105408437500 4.86814291875000 7.43906163437500 
 S -5.61762308437500 0.960086918750004 6.06361163437500 
 S -5.72400708437500 4.37596391875000 6.04051963437500 
 S -2.66023608437500 1.06736391875000 3.09603863437500 
 S -2.72718408437500 5.11570991875000 3.24978163437500 
 S -3.18545908437500 1.66252491875000 7.16822563437500 
 S -3.31177208437500 5.05996291875000 7.30811763437500 
