16

 C -2.82154894375000 1.27315098750000 5.31670423437500 
 C -3.19224594375000 4.94402798750000 5.42390923437500 
 C -4.07401194375000 0.772226987500000 4.85446923437500 
 C -4.42715994375000 4.38697998750000 4.82392223437500 
 N -1.91684494375000 1.51223498750000 4.35919523437500 
 N -2.20373594375000 5.20639598750000 4.54965323437500 
 N -4.13766794375000 0.698898987500000 3.50746523437500 
 N -4.30667294375000 4.33180498750000 3.49813923437500 
 N -4.48779794375000 1.20662998750000 7.32875623437500 
 N -4.80586294375000 5.04752798750000 7.39900423437500 
 S -5.35679194375000 0.824087987500000 5.91815923437500 
 S -5.60499994375000 4.23696398750000 6.11903923437500 
 S -2.68707194375000 1.09520098750000 2.93138723437500 
 S -2.83148994375000 4.90130598750000 3.03317323437500 
 S -2.91890294375000 1.77769698750000 7.06067423437500 
 S -3.24780494375000 5.46524898750000 7.08233923437500 
