16

 C -3.36160183437500 1.41026431250000 5.44039820000000 
 C -3.21046183437500 4.98419831250000 4.96487020000000 
 C -4.39754583437500 0.562426312499999 4.83234920000000 
 C -4.36920383437500 4.46112031250000 4.32689620000000 
 N -2.48025883437500 1.86669431250000 4.54133520000000 
 N -2.15440083437500 5.22441831250000 4.23570320000000 
 N -4.23124383437500 0.298857312499998 3.54172820000000 
 N -4.19493483437500 4.46163631250000 2.98441120000000 
 N -5.11227083437500 0.791327312499998 7.21558520000000 
 N -4.82542983437500 4.42217931250000 6.83657420000000 
 S -5.76311083437500 0.186903312499998 5.81895520000000 
 S -5.54663683437500 3.84549131250000 5.45402920000000 
 S -2.86430683437500 1.15483731250000 3.11516520000000 
 S -2.60839183437500 5.01848631250000 2.64898120000000 
 S -3.60416883437500 1.44754131250000 7.16186420000000 
 S -3.38969283437500 5.21760131250000 6.63337820000000 
