16

 C -3.09591301250000 1.59627816562500 5.47575472812500 
 C -3.48194501250000 5.09286616562500 5.56464572812500 
 C -4.22043101250000 0.959106165625000 4.72814672812500 
 C -4.66476301250000 4.49198316562500 4.96226872812500 
 N -2.04562101250000 1.91833416562500 4.74006472812500 
 N -2.61196801250000 5.51828816562500 4.65422172812500 
 N -3.97463901250000 0.857889165625000 3.41704672812500 
 N -4.56588201250000 4.25827516562500 3.65241872812500 
 N -4.78930801250000 0.875568165625000 7.29809872812500 
 N -5.16694501250000 4.62623816562500 7.48982072812500 
 S -5.58180101250000 0.678968165625000 5.85430472812500 
 S -5.94123601250000 4.11184716562500 6.09213772812500 
 S -2.48003101250000 1.54755116562500 3.16538672812500 
 S -3.11224401250000 4.88153116562500 3.15847572812500 
 S -3.40042401250000 1.84052116562500 7.22985472812500 
 S -3.81359001250000 5.49545716562500 7.21050172812500 
