16

 C -3.00345993437500 1.29057002187500 5.49451212187500 
 C -3.11789293437500 5.41785502187500 5.35813012187500 
 C -4.28087993437500 0.924460021875000 4.87092312187500 
 C -4.31800793437500 4.89218702187500 4.74760812187500 
 N -1.94400593437500 1.30416702187500 4.70153812187500 
 N -2.09703493437500 5.63866802187500 4.54171112187500 
 N -4.09384393437500 0.725169021875001 3.58727812187500 
 N -4.18518093437500 4.82427202187500 3.41005212187500 
 N -4.87965593437500 1.00038102187500 7.33472812187500 
 N -4.88669693437500 4.94079602187500 7.25636112187500 
 S -5.69131493437500 0.771018021875000 5.90072512187500 
 S -5.59021993437500 4.47672802187500 5.81962112187500 
 S -2.52977293437500 0.965168021875001 3.13418612187500 
 S -2.71011393437500 5.29794302187500 3.01567012187500 
 S -3.31603593437500 1.46741402187500 7.24293112187500 
 S -3.28200593437500 5.51352402187500 7.06456412187500 
