16

 C -3.26464191250000 1.39633910937500 5.52942771562500 
 C -3.30953191250000 5.11062710937500 5.45549171562500 
 C -4.52832991250000 1.09210910937500 4.86666971562500 
 C -4.50890291250000 4.57946110937500 4.85403271562500 
 N -2.22062691250000 1.54831510937500 4.70564371562500 
 N -2.32167791250000 5.32363510937500 4.61208271562500 
 N -4.44080491250000 0.909951109374999 3.53299871562500 
 N -4.48897491250000 4.50102910937500 3.52331571562500 
 N -5.02956991250000 1.21849710937500 7.46226771562500 
 N -5.00178391250000 4.88114810937500 7.38437571562500 
 S -5.82005891250000 0.740719109374999 6.04635371562500 
 S -5.78840191250000 4.38077010937500 5.98645771562500 
 S -2.84103591250000 1.21397310937500 3.17183371562500 
 S -2.91707991250000 4.90445910937500 3.10207071562500 
 S -3.39552091250000 1.46010310937500 7.31449071562500 
 S -3.40239291250000 5.12831610937500 7.21573371562500 
