16

 C -3.16852429687500 1.35553049375000 5.52813418437500 
 C -3.09817529687500 4.95324649375000 5.69695018437500 
 C -4.42020729687500 0.884402493750000 4.99090218437500 
 C -4.32884129687500 4.43471249375000 5.12449618437500 
 N -2.22442029687500 1.51573549375000 4.57023818437500 
 N -2.10176329687500 5.22622649375000 4.77432318437500 
 N -4.44847029687500 0.653988493750000 3.68727318437500 
 N -4.19658429687500 4.13936849375000 3.82907818437500 
 N -4.88919829687500 1.35260649375000 7.49048618437500 
 N -4.97811429687500 4.74268249375000 7.61949718437500 
 S -5.72489929687500 0.917237493750000 6.14495518437500 
 S -5.72551329687500 4.21881349375000 6.17628618437500 
 S -2.87172329687500 0.960352493749999 3.19001918437500 
 S -2.72729529687500 4.68941849375000 3.29773218437500 
 S -3.34584729687500 1.73563549375000 7.24127818437500 
 S -3.34568729687500 5.28383849375000 7.42434218437500 
