16

 C -2.95358576562500 1.67404183437500 5.42119485312500 
 C -3.03511976562500 5.21090783437500 5.66559685312500 
 C -4.23018376562500 1.27119083437500 4.84063285312500 
 C -4.18589076562500 4.61795283437500 5.01306085312500 
 N -1.97464676562500 1.69861383437500 4.56886285312500 
 N -1.98434176562500 5.46852883437500 4.90285785312500 
 N -4.23025476562500 1.08205083437500 3.52817885312500 
 N -4.04742776562500 4.54085283437500 3.67869285312500 
 N -4.50723076562500 1.22708083437500 7.41526285312500 
 N -4.85340776562500 4.82087483437500 7.47794185312500 
 S -5.46910276562500 1.15367783437500 6.04592285312500 
 S -5.60003676562500 4.42494483437500 6.02217485312500 
 S -2.63037776562500 1.31156683437500 3.08411885312500 
 S -2.47217776562500 5.08096183437500 3.37158085312500 
 S -2.83482476562500 1.62848583437500 7.12041585312500 
 S -3.29113976562500 5.34569283437500 7.33216685312500 
