16

 C -2.97147690937500 1.02123274375000 5.83024422187500 
 C -3.18967090937500 4.98600774375000 5.58566022187500 
 C -4.21306790937500 0.631726743750001 5.20891922187500 
 C -4.34135790937500 4.45400774375000 4.90548122187500 
 N -1.95976790937500 1.13186074375000 4.96806022187500 
 N -2.27741890937500 5.45135474375000 4.74526022187500 
 N -4.13448690937500 0.493643743750001 3.89430922187500 
 N -4.26104590937500 4.36979374375000 3.57162422187500 
 N -4.91205590937500 1.01503274375000 7.59557822187500 
 N -5.02092790937500 4.68261874375000 7.40607922187500 
 S -5.60814790937500 0.538564743750000 6.18595722187500 
 S -5.59032990937500 3.97427974375000 6.03269922187500 
 S -2.58975690937500 0.918939743750001 3.41201622187500 
 S -2.77990690937500 5.04832174375000 3.19981522187500 
 S -3.29974590937500 1.24983074375000 7.52453622187500 
 S -3.49307390937500 5.29387974375000 7.27821922187500 
