16

 C -3.32964028437500 1.29918034375000 5.53591594687500 
 C -3.37692328437500 4.75843134375000 5.25689194687500 
 C -4.45872428437500 0.687039343749999 4.90404594687500 
 C -4.64521028437500 4.44381834375000 4.65300694687500 
 N -2.29336928437500 1.54899134375000 4.76832494687500 
 N -2.36585728437500 5.13181934375000 4.47288194687500 
 N -4.34697928437500 0.594286343750000 3.59611094687500 
 N -4.51710628437500 4.47678234375000 3.33325794687500 
 N -5.04603628437500 0.959740343750000 7.36619494687500 
 N -5.12586028437500 4.61290534375000 7.11963494687500 
 S -5.76224728437500 0.285793343750000 5.99926794687500 
 S -5.99746228437500 4.44592834375000 5.72382194687500 
 S -2.79021628437500 1.14964634375000 3.23052194687500 
 S -2.99598428437500 4.97224934375000 2.91914494687500 
 S -3.46497328437500 1.47103334375000 7.23104794687500 
 S -3.54297628437500 4.98547534375000 6.97590494687500 
