16

 C -2.80468101562500 1.28421349687500 5.33702408750000 
 C -3.20116901562500 4.92048849687500 5.37706108750000 
 C -4.06832201562500 0.773101496875001 4.81907608750000 
 C -4.42063801562500 4.41360349687500 4.86476608750000 
 N -1.98409201562500 1.47763049687500 4.34085708750000 
 N -2.27585001562500 5.20781249687500 4.51074708750000 
 N -4.14499201562500 0.713944496875000 3.51148508750000 
 N -4.34020401562500 4.33562049687500 3.52144908750000 
 N -4.50972101562500 1.23410649687500 7.30799108750000 
 N -4.84145401562500 5.03171449687500 7.39844208750000 
 S -5.35182201562500 0.855635496875000 5.93638808750000 
 S -5.60493201562500 4.21997149687500 6.12306208750000 
 S -2.72351801562500 1.06093149687500 2.91625908750000 
 S -2.88070601562500 4.93340849687500 3.02929708750000 
 S -2.93037701562500 1.75647549687500 7.09798108750000 
 S -3.22776101562500 5.45406749687500 7.04492508750000 
