16

 C -2.90170439062500 1.34421203437500 5.59882849062500 
 C -3.06432039062500 5.09203603437500 5.19681149062500 
 C -4.09259739062500 0.985089034375000 4.82173249062500 
 C -4.36521939062500 4.88382003437500 4.52664649062500 
 N -1.83981039062500 1.47218103437500 4.83809549062500 
 N -2.10672839062500 5.17643603437500 4.29358649062500 
 N -3.88842339062500 0.743498034375000 3.54281849062500 
 N -4.29114039062500 4.52094803437500 3.26459949062500 
 N -4.93621239062500 1.56106303437500 7.25234349062500 
 N -4.72429139062500 4.96664703437500 7.09551649062500 
 S -5.54045039062500 0.863085034375001 5.84424249062500 
 S -5.61139639062500 4.81036903437500 5.74682849062500 
 S -2.31359139062500 0.914145034375000 3.24440049062500 
 S -2.71952139062500 4.79786603437500 2.80819949062500 
 S -3.28470939062500 1.63836303437500 7.27641949062500 
 S -3.11533239062500 5.35088103437500 6.90713349062500 
