16

 C -3.12183523750000 1.54830917187501 5.33472747500000 
 C -3.27273623750000 5.21811917187500 5.74102047500000 
 C -4.22212623750000 0.784981171875005 4.81630147500000 
 C -4.43352523750000 4.68819617187501 5.08230247500000 
 N -2.13121323750000 1.62889417187500 4.42441147500000 
 N -2.23144023750000 5.44958717187501 4.99187947500000 
 N -4.01162223750000 0.205790171875004 3.62738247500000 
 N -4.17994923750000 4.50049017187500 3.79670447500000 
 N -4.92908223750000 1.43070517187501 7.21814347500000 
 N -5.00241023750000 5.03763617187500 7.56972747500000 
 S -5.62893523750000 0.819937171875004 5.79548947500000 
 S -5.83133423750000 4.57894417187500 6.18800947500000 
 S -2.63129523750000 0.796759171875005 3.07005947500000 
 S -2.59503523750000 5.02532217187500 3.44888847500000 
 S -3.36271123750000 2.01885717187500 7.00544147500000 
 S -3.45061823750000 5.68551117187500 7.37290447500000 
