16

 C -3.17722903750000 1.57371687812500 5.83953714687500 
 C -3.08912603750000 5.11485687812500 5.78113214687500 
 C -4.41363303750000 1.08942787812500 5.26797614687500 
 C -4.28538103750000 4.63608187812500 5.10946414687500 
 N -2.13531003750000 1.58474187812500 5.01760914687500 
 N -2.02431103750000 5.35629487812500 4.96138114687500 
 N -4.35214403750000 0.782124878125000 3.99594014687500 
 N -4.13874103750000 4.47763287812500 3.79983114687500 
 N -5.03251403750000 1.31238687812500 7.76135714687500 
 N -4.81294103750000 4.98309587812500 7.54207014687500 
 S -5.77251003750000 0.911381878125001 6.31754114687500 
 S -5.58545303750000 4.32548487812500 6.20704414687500 
 S -2.83275503750000 1.22662087812500 3.52055514687500 
 S -2.55168603750000 4.96199587812500 3.43701614687500 
 S -3.39330003750000 1.79642987812500 7.57146114687500 
 S -3.29017503750000 5.33520887812500 7.51402914687500 
