16

 C -3.25521525937500 0.911709168750003 5.43915450312500 
 C -3.30125325937500 5.01867316875000 5.56247750312500 
 C -4.52307025937500 0.690272168750003 4.77059550312500 
 C -4.50369925937500 4.56313616875000 4.89167450312500 
 N -2.20406425937500 1.09910616875000 4.62238650312500 
 N -2.25421625937500 5.28653416875000 4.73760850312500 
 N -4.48053325937500 0.730662168750002 3.42518650312500 
 N -4.35842425937500 4.38447216875000 3.57980150312500 
 N -5.03069225937500 0.628421168750002 7.29227150312500 
 N -4.98578125937500 4.54565216875000 7.43054150312500 
 S -5.89383025937500 0.434457168750003 5.89263150312500 
 S -5.88237725937500 4.39882716875000 6.00401850312500 
 S -2.83602625937500 0.978085168750003 3.08112350312500 
 S -2.79652425937500 4.92002516875000 3.24677750312500 
 S -3.39607825937500 0.800895168750002 7.15189950312500 
 S -3.35997425937500 4.89963316875000 7.30718550312500 
