16

 C -2.94336415312500 1.26601383750000 5.66573072187500 
 C -2.90293315312500 4.84893683750000 5.42738572187500 
 C -4.26801215312500 1.15024583750000 5.09698972187500 
 C -4.17768715312500 4.61058283750000 4.75351672187500 
 N -1.94666515312500 1.09263783750000 4.82271172187500 
 N -1.82395815312500 4.81665183750000 4.63715572187500 
 N -4.22743915312500 0.870928837500002 3.79849972187500 
 N -3.97112415312500 4.34665083750000 3.48337772187500 
 N -4.50998815312500 1.45587983750000 7.64051972187500 
 N -4.76833415312500 4.80632783750000 7.27465872187500 
 S -5.47842915312500 1.48376283750000 6.31783872187500 
 S -5.55964715312500 4.45860583750000 5.76989172187500 
 S -2.63995915312500 0.639402837500001 3.40198472187500 
 S -2.35925215312500 4.39019183750000 3.09576772187500 
 S -2.90595715312500 1.57731583750000 7.42761872187500 
 S -3.13969915312500 4.98301783750000 7.17518072187500 
