16

 C -2.97918315312500 1.04059935312500 5.82108996250000 
 C -3.23053515312500 4.95112635312500 5.55580596250000 
 C -4.20161915312500 0.676968353125001 5.17231396250000 
 C -4.38299215312500 4.41701435312500 4.89462696250000 
 N -1.94561515312500 1.18199135312500 4.98067096250000 
 N -2.27810715312500 5.36349735312500 4.72330496250000 
 N -4.08793115312500 0.420705353125000 3.88066396250000 
 N -4.23522315312500 4.34695035312500 3.57029496250000 
 N -4.90326815312500 0.974275353125001 7.63431096250000 
 N -4.94073115312500 4.58885135312500 7.40540596250000 
 S -5.59721815312500 0.501601353125000 6.20590196250000 
 S -5.63993015312500 4.03822335312500 6.00350796250000 
 S -2.56063015312500 0.888229353125000 3.45280196250000 
 S -2.76770815312500 5.01405635312500 3.16841596250000 
 S -3.22767115312500 1.31195235312500 7.57249096250000 
 S -3.44957515312500 5.33407835312500 7.28032096250000 
