16

 C -3.48897739375000 1.41589187187501 5.52542795000000 
 C -3.08785939375000 5.13377587187501 5.42010195000000 
 C -4.47732539375000 0.572485871875005 4.89237795000000 
 C -4.27502539375000 4.79068387187500 4.67345095000000 
 N -2.47253539375000 1.79694087187500 4.76710995000000 
 N -1.93179839375000 5.13472987187501 4.74076895000000 
 N -4.19258939375000 0.315554871875005 3.60974195000000 
 N -3.97467139375000 4.45515187187500 3.37282395000000 
 N -5.30580739375000 0.872579871875005 7.22548495000000 
 N -4.98533639375000 5.12919587187500 7.17695295000000 
 S -5.87640039375000 0.237948871875004 5.85397895000000 
 S -5.68821639375000 4.94343487187500 5.67675295000000 
 S -2.68121939375000 0.980654871875005 3.26523295000000 
 S -2.35048239375000 4.61059987187500 3.16626095000000 
 S -3.87748639375000 1.73950587187500 7.23647395000000 
 S -3.31274139375000 5.51148787187500 7.10525395000000 
