16

 C -3.20268876562500 1.17212157500000 5.57010066562500 
 C -3.35649376562500 4.80893557500000 5.38589366562500 
 C -4.29272076562500 0.550582575000001 4.83368166562500 
 C -4.63712676562500 4.61599657500000 4.74758366562500 
 N -2.20631876562500 1.57995157500000 4.77857966562500 
 N -2.35379076562500 4.87145357500000 4.54438666562500 
 N -4.17121076562500 0.643128575000002 3.50253166562500 
 N -4.60644376562500 4.63746157500000 3.41545566562500 
 N -5.09305076562500 0.738826575000001 7.27668066562500 
 N -5.10485876562500 4.79641557500000 7.26040466562500 
 S -5.63163976562500 8.897257500000144E-002 5.86273666562500 
 S -5.99185276562500 4.51670357500000 5.86805166562500 
 S -2.62080376562500 1.26369657500000 3.15968266562500 
 S -3.01406176562500 4.82811257500000 2.98566166562500 
 S -3.52718376562500 1.21745657500000 7.35761066562500 
 S -3.46769476562500 4.79910457500000 7.11575766562500 
