16

 C -3.17966891875000 1.11801371562500 5.51811195000000 
 C -3.22861591875000 4.66290171562500 5.61629695000000 
 C -4.30315091875000 0.686478715625001 4.73773395000000 
 C -4.52028391875000 4.39124971562500 5.04848995000000 
 N -2.07148691875000 1.44527871562500 4.81809995000000 
 N -2.25385191875000 4.77146771562500 4.74132395000000 
 N -4.15187291875000 0.815394715625000 3.41498995000000 
 N -4.50523391875000 4.44668971562500 3.71630495000000 
 N -5.04979991875000 0.297705715625000 7.14922995000000 
 N -4.96696791875000 4.68416471562500 7.56757095000000 
 S -5.67171091875000 7.941471562500046E-002 5.64314795000000 
 S -5.82753291875000 4.54828371562500 6.17824395000000 
 S -2.59888691875000 1.33547771562500 3.20388195000000 
 S -2.95025491875000 4.68038271562500 3.23030695000000 
 S -3.53676191875000 0.821826715625000 7.21189295000000 
 S -3.31589291875000 4.96134771562500 7.31742195000000 
