16

 C -2.90062529375000 1.67285180000000 5.25097769062500 
 C -3.31867429375000 5.02643680000000 5.58596069062500 
 C -4.06114029375000 1.02034180000000 4.72361869062500 
 C -4.47931929375000 4.51171180000000 4.91916569062500 
 N -1.90144829375000 1.90433280000000 4.41765269062500 
 N -2.29481929375000 5.28046580000000 4.79492269062500 
 N -4.05520429375000 0.843758800000002 3.41690569062500 
 N -4.39982829375000 4.49729280000000 3.60406569062500 
 N -4.33168829375000 1.04491280000000 7.30921869062500 
 N -5.04791729375000 4.50389980000000 7.41583169062500 
 S -5.25870329375000 0.605424800000002 6.02216869062500 
 S -5.69751129375000 4.03421580000000 5.96920669062500 
 S -2.53702829375000 1.34297680000000 2.98071069062500 
 S -2.87180229375000 5.06872480000000 3.24201569062500 
 S -2.85504429375000 1.71513480000000 6.97120769062500 
 S -3.43020529375000 4.92825180000000 7.34031669062500 
