16

 C -3.19054938125000 1.20596706875000 5.37161345937500 
 C -2.87364438125000 5.30951706875000 5.41470945937500 
 C -4.47339638125000 0.867091068749999 4.79236545937500 
 C -4.00049838125000 4.80787506875000 4.70686645937500 
 N -2.21557938125000 1.13103106875000 4.50093445937500 
 N -1.81147038125000 5.38142406875000 4.63472345937500 
 N -4.45063938125000 0.487779068749999 3.52648545937500 
 N -3.88990138125000 4.70483206875000 3.37029845937500 
 N -4.79074838125000 1.07622206875000 7.32484645937500 
 N -4.64804438125000 4.79370406875000 7.17720145937500 
 S -5.72385938125000 0.875480068749999 5.94333845937500 
 S -5.39093038125000 4.58369006875000 5.73634845937500 
 S -2.87011938125000 0.671321068749999 3.07050045937500 
 S -2.29817238125000 4.99035206875000 3.07898145937500 
 S -3.20669938125000 1.63147906875000 7.07155245937500 
 S -3.12075238125000 5.40851406875000 7.09872745937500 
