16

 C -3.20162394062500 1.06806249375000 5.57638858437500 
 C -3.25159394062500 5.14788249375000 5.67193558437500 
 C -4.45055694062500 0.879767493750001 4.89617558437500 
 C -4.33850294062500 4.46748349375000 5.06909458437500 
 N -2.14979894062500 1.18884249375000 4.74300758437500 
 N -2.26540494062500 5.52830949375000 4.86488458437500 
 N -4.35941894062500 0.756327493750001 3.57207558437500 
 N -4.19145894062500 4.35734649375000 3.77685158437500 
 N -5.00997194062500 0.512837493750001 7.42923758437500 
 N -4.89568494062500 4.42133549375000 7.56306458437500 
 S -5.80717794062500 0.558420493750000 5.96602058437500 
 S -5.67641894062500 4.13500049375000 6.14128558437500 
 S -2.74787094062500 0.919472493750001 3.20052158437500 
 S -2.74389394062500 5.03160349375000 3.34309358437500 
 S -3.44302794062500 1.00401749375000 7.28314558437500 
 S -3.50664594062500 5.32201149375000 7.39007458437500 
