16

 C -3.14391769687500 1.50003831875000 5.60530004375000 
 C -2.88069669687500 5.34835631875000 5.38529404375000 
 C -4.38474269687500 0.967332318749999 5.06079204375000 
 C -4.13820469687500 4.88074731875000 4.84125804375000 
 N -2.16374569687500 1.63644231875000 4.70105204375000 
 N -1.92261169687500 5.60766331875000 4.52143404375000 
 N -4.31233369687500 0.585437318749999 3.77346804375000 
 N -4.13554069687500 4.77218731875000 3.51890804375000 
 N -4.61874069687500 1.15777531875000 7.66204804375000 
 N -4.55617369687500 4.91757331875000 7.34013704375000 
 S -5.57842669687500 0.770975318749998 6.32098604375000 
 S -5.45823569687500 4.65467931875000 5.95730804375000 
 S -2.80106169687500 1.12060531875000 3.22247504375000 
 S -2.66996469687500 5.23586931875000 2.99298504375000 
 S -3.04515769687500 1.61992731875000 7.25695604375000 
 S -2.98650869687500 5.40155431875000 7.23448204375000 
