16

 C -3.29845647500000 1.38365488125000 5.55678601250000 
 C -2.94273947500000 5.24265888125000 5.43891201250000 
 C -4.44179147500000 0.680543881250001 5.01953001250000 
 C -4.18734647500000 4.92304688125000 4.80033101250000 
 N -2.30427547500000 1.64045888125000 4.72505601250000 
 N -1.90084347500000 5.38001388125000 4.64574201250000 
 N -4.32053447500000 0.433726881250001 3.73480301250000 
 N -4.11988147500000 4.85226388125000 3.50734801250000 
 N -5.08559647500000 1.24935988125000 7.37728301250000 
 N -4.68019747500000 5.12053588125000 7.36044701250000 
 S -5.66538747500000 0.342622881250001 6.16222501250000 
 S -5.47632147500000 4.69163088125000 5.98069301250000 
 S -2.83561447500000 1.02747288125000 3.22647101250000 
 S -2.55966147500000 5.08670588125000 3.05689301250000 
 S -3.56076147500000 1.85358688125000 7.18539901250000 
 S -3.09189247500000 5.39183688125000 7.16080101250000 
