16

 C -2.86501374062500 1.23587860000000 5.53981494375000 
 C -2.89398574062500 5.13035060000000 5.65899394375000 
 C -4.11402774062500 0.878376599999998 4.88540794375000 
 C -4.06894574062500 4.58100360000000 5.02487594375000 
 N -1.88428074062500 1.45893460000000 4.68115194375000 
 N -1.96202774062500 5.47701960000000 4.78145594375000 
 N -3.99536374062500 0.651757599999999 3.58254594375000 
 N -3.95444674062500 4.31511960000000 3.71963394375000 
 N -4.80496174062500 1.00302760000000 7.31235594375000 
 N -4.68631074062500 4.63446560000000 7.48045494375000 
 S -5.52326674062500 0.699581599999998 5.87357894375000 
 S -5.46834074062500 4.34413360000000 6.03147394375000 
 S -2.34114374062500 0.853674599999999 3.18563494375000 
 S -2.47828074062500 4.86055860000000 3.30222694375000 
 S -3.18083574062500 1.31255660000000 7.28962494375000 
 S -3.21384974062500 5.37956360000000 7.36564094375000 
