16

 C -3.23639881875000 1.28315898124999 5.56683367187500 
 C -3.28283781875000 5.08251398124999 5.40710667187500 
 C -4.46861181875000 1.17924298124999 4.84797367187500 
 C -4.50343881875000 4.68560298124999 4.75573467187500 
 N -2.17663281875000 1.21868598124999 4.81057267187500 
 N -2.18379981875000 4.96904198124999 4.64868767187500 
 N -4.30457581875000 0.867157981249992 3.56473067187500 
 N -4.40580281875000 4.37833798124999 3.47350667187500 
 N -5.02180981875000 1.33558798124999 7.35989167187500 
 N -5.01805281875000 5.01663798124999 7.25945167187500 
 S -5.83668681875000 1.32926098124999 5.90548867187500 
 S -5.77713581875000 4.46546898124999 5.92006067187500 
 S -2.71067581875000 0.951770981249992 3.23130467187500 
 S -2.79949881875000 4.44512998124999 3.13712567187500 
 S -3.36285581875000 1.39489998124999 7.23368367187500 
 S -3.43912481875000 5.58065998124999 7.07717867187500 
