16

 C -3.22113529062500 1.20545540625000 5.50798366875000 
 C -3.17496429062500 5.46339140625000 5.55638366875000 
 C -4.41465329062500 0.787006406249999 4.84080566875000 
 C -4.24126029062500 4.86669740625000 4.82214566875000 
 N -2.20850429062500 1.39539040625000 4.74414466875000 
 N -2.16057729062500 5.76019740625000 4.78993266875000 
 N -4.32528929062500 0.790851406249999 3.51840766875000 
 N -4.14513429062500 4.95666640625000 3.48233466875000 
 N -4.90206829062500 1.02833040625000 7.35284666875000 
 N -4.88233429062500 4.80438940625000 7.43117466875000 
 S -5.70160129062500 0.501463406249999 6.00039966875000 
 S -5.49747029062500 4.36387340625000 5.95106766875000 
 S -2.72292629062500 1.01324540625000 3.18482766875000 
 S -2.65072329062500 5.54656440625000 3.19669966875000 
 S -3.28958729062500 1.27623140625000 7.23651466875000 
 S -3.34594929062500 5.53847140625000 7.31400266875000 
