16

 C -2.95426938125000 1.85660556250000 5.66157954375000 
 C -3.29107338125000 5.53162856250000 5.30738254375000 
 C -4.22434238125000 1.61448256250000 5.01934554375000 
 C -4.44628938125000 4.92859756250000 4.72190054375000 
 N -1.93035338125000 1.90027156250000 4.82291654375000 
 N -2.32408238125000 5.83414756250000 4.44631754375000 
 N -4.14237238125000 1.59258056250000 3.71379754375000 
 N -4.35217138125000 4.78171056250000 3.41677954375000 
 N -4.61918238125000 1.59057456250000 7.52750254375000 
 N -4.91138338125000 5.03198156250000 7.22600854375000 
 S -5.50693638125000 1.42093756250000 6.14964754375000 
 S -5.66067638125000 4.47110356250000 5.86237054375000 
 S -2.49427938125000 1.84152756250000 3.29515954375000 
 S -2.85505738125000 5.25189456250000 2.94216154375000 
 S -3.00767738125000 1.98548656250000 7.39458554375000 
 S -3.34742338125000 5.60260956250000 7.05471254375000 
