16

 C -3.27398469687500 1.41754617500000 5.81567972500000 
 C -2.91210269687500 4.92501717500000 5.64882972500000 
 C -4.54532169687500 0.935143174999999 5.28652472500000 
 C -4.14915669687500 4.54638117500000 5.01960872500000 
 N -2.26823769687500 1.40704117500000 4.97837672500000 
 N -1.96184069687500 5.16727917500000 4.77361872500000 
 N -4.49599269687500 0.566159174999997 4.01649872500000 
 N -4.09716169687500 4.51782917500000 3.70821872500000 
 N -4.79230969687500 1.47386517500000 7.87923972500000 
 N -4.84838169687500 4.73797417500000 7.36823572500000 
 S -5.79771569687500 1.15586617500000 6.54695672500000 
 S -5.54449269687500 4.42388017500000 5.98720372500000 
 S -2.89256469687500 0.956115174999997 3.52108372500000 
 S -2.56105369687500 4.92517517500000 3.22057272500000 
 S -3.14592869687500 1.71034117500000 7.43903872500000 
 S -3.18195369687500 5.04091617500000 7.42372272500000 
