16

 C -3.30713967187500 1.23657067812500 5.53493311250000 
 C -3.27162367187500 5.06013167812500 5.19126911250000 
 C -4.58085167187500 1.09218167812500 4.82776611250000 
 C -4.46314467187500 4.48086467812500 4.59626511250000 
 N -2.23332667187500 1.25055967812500 4.74624311250000 
 N -2.22913367187500 5.18896267812500 4.35327211250000 
 N -4.44675967187500 0.982664678124998 3.51239311250000 
 N -4.32609367187500 4.10473467812500 3.33861111250000 
 N -5.18094367187500 1.19026267812500 7.35606511250000 
 N -4.99361867187500 4.89124967812500 7.09312611250000 
 S -5.88704367187500 0.860370678124998 5.90783811250000 
 S -5.84451767187500 4.49578367812500 5.72879611250000 
 S -2.84962067187500 1.05010067812500 3.17774211250000 
 S -2.74547967187500 4.49952767812500 2.92135711250000 
 S -3.53534467187500 1.43538567812500 7.29587811250000 
 S -3.37715767187500 5.38802067812500 6.92838511250000 
