16

 C -2.86763221250000 1.26772285937501 5.69151455000000 
 C -2.92374421250000 4.87510785937500 5.39642755000000 
 C -4.25052221250000 1.19960285937501 5.16343455000000 
 C -4.17386121250000 4.60629185937501 4.76865255000000 
 N -1.93215021250000 1.06962485937501 4.80230255000000 
 N -1.84162421250000 4.84960085937501 4.62893255000000 
 N -4.31593821250000 0.821115859375006 3.89977355000000 
 N -3.98566721250000 4.34028585937500 3.45361255000000 
 N -4.52540921250000 1.52250685937500 7.61771655000000 
 N -4.78688221250000 4.84599685937500 7.29309655000000 
 S -5.47794221250000 1.46049885937500 6.30568855000000 
 S -5.57906421250000 4.47683485937501 5.81618455000000 
 S -2.69991821250000 0.601129859375005 3.38085855000000 
 S -2.32390821250000 4.41295585937501 3.09428655000000 
 S -2.89682321250000 1.55519785937500 7.43528755000000 
 S -3.08591321250000 4.92922485937500 7.13606355000000 
