16

 C -3.06581242500000 1.23836111562500 5.41702604062500 
 C -3.03189642500000 5.18940511562500 5.51966404062500 
 C -4.18089442500000 0.652720115625000 4.72242604062500 
 C -4.31557642500000 4.94402811562500 4.92930804062500 
 N -2.10955642500000 1.69163911562500 4.62678504062500 
 N -2.04279242500000 5.27669811562500 4.66228904062500 
 N -4.06429842500000 0.589925115625000 3.42500004062500 
 N -4.22456142500000 4.73173911562500 3.58609004062500 
 N -4.98879642500000 0.896913115625001 7.21059004062500 
 N -4.55067142500000 5.04378711562500 7.47301404062500 
 S -5.56549642500000 0.456877115625000 5.66089804062500 
 S -5.53125342500000 4.98917511562500 6.17709204062500 
 S -2.55080342500000 1.25485211562500 3.06580904062500 
 S -2.61101442500000 4.99277511562500 3.12787504062500 
 S -3.38498642500000 1.42254811562500 7.16190704062500 
 S -3.01133842500000 5.37037911562500 7.21926904062500 
