16

 C -3.74639098750000 1.16708780625000 5.71042817500000 
 C -3.16459298750000 5.00874880625000 5.32124817500000 
 C -4.91302198750000 0.715255806250003 4.92140117500000 
 C -4.39106898750000 4.48762680625000 4.79487517500000 
 N -2.64084398750000 1.49696480625000 5.06656817500000 
 N -2.13298298750000 5.03312880625000 4.48496717500000 
 N -4.55950298750000 0.611286806250003 3.66118617500000 
 N -4.29065498750000 4.18254480625000 3.49858917500000 
 N -5.58807898750000 0.679959806250003 7.32302917500000 
 N -4.75439798750000 5.00098580625000 7.27602617500000 
 S -6.28259298750000 0.256752806250002 5.83850417500000 
 S -5.57101198750000 4.29105580625000 6.03384117500000 
 S -3.03938598750000 1.17717180625000 3.50306417500000 
 S -2.79620498750000 4.60639480625000 2.99405317500000 
 S -4.04298298750000 1.28853680625000 7.37374817500000 
 S -3.19837498750000 5.52046180625000 7.00159617500000 
