16

 C -3.27259896249999 1.67167643437500 5.77327930312500 
 C -3.14175896249999 5.32494743437500 5.87140530312500 
 C -4.42395996249999 1.12514943437500 5.04804930312500 
 C -4.31527896249999 4.81530643437500 5.20883730312500 
 N -2.21394696249999 1.81187943437500 5.02086330312500 
 N -2.06219496249999 5.44787043437500 5.04486930312500 
 N -4.24297196249999 0.970576434374999 3.75484130312500 
 N -4.21078196249999 4.52211443437500 3.89974930312500 
 N -5.06164396249999 1.20677843437500 7.66646230312500 
 N -4.73416896249999 4.88301443437500 7.70013730312500 
 S -5.72835996249999 0.724969434375000 6.18301830312500 
 S -5.51132296249999 4.36415743437500 6.38016730312500 
 S -2.62593596249999 1.33172143437500 3.50491030312500 
 S -2.62277896249999 4.95126243437500 3.57773830312500 
 S -3.52983996249999 1.89620343437500 7.46548430312500 
 S -3.31205996249999 5.57068143437500 7.55849430312500 
