16

 C -3.31621795000000 1.57873759062500 5.46475853750000 
 C -2.99921995000000 5.36870659062500 5.90227253750000 
 C -4.38797195000000 0.839841590624997 4.80727853750000 
 C -4.15775595000000 4.77255559062500 5.37727453750000 
 N -2.32377995000000 2.08288259062500 4.80447253750000 
 N -2.08617795000000 5.59643159062500 4.94093853750000 
 N -4.07413995000000 0.663084590624996 3.53129153750000 
 N -4.20370695000000 4.54859659062500 4.04729953750000 
 N -4.97084495000000 1.10440459062500 7.34245153750000 
 N -4.72729095000000 5.12074159062500 7.89119753750000 
 S -5.67856495000000 0.475408590624997 6.00797153750000 
 S -5.46212495000000 4.59865359062500 6.36870553750000 
 S -2.60096895000000 1.57678259062500 3.25206153750000 
 S -2.78143195000000 5.14177759062500 3.48161353750000 
 S -3.45769395000000 1.68256659062500 7.18783153750000 
 S -3.08572495000000 5.44346559062500 7.67520753750000 
