16

 C -3.13892234687500 1.26941606875001 5.39724905937500 
 C -3.22910134687500 5.36252106875000 5.60002005937500 
 C -4.32894134687500 0.600716068750005 4.87224905937500 
 C -4.36990534687500 4.71756006875000 4.99707605937500 
 N -2.08153834687500 1.22211306875000 4.60466805937500 
 N -2.17975734687500 5.61899606875000 4.81357205937500 
 N -4.19540134687500 0.103176068750005 3.65894405937500 
 N -4.14937434687500 4.33742506875001 3.68390405937500 
 N -5.06160334687500 1.33871906875001 7.18801305937500 
 N -4.93464434687500 5.17545706875001 7.49295405937500 
 S -5.69920134687500 0.537695068750005 5.84135805937500 
 S -5.70449434687500 4.71224306875000 6.13140805937500 
 S -2.61845934687500 0.409340068750005 3.20221805937500 
 S -2.60353934687500 4.91895706875000 3.35110105937500 
 S -3.53830234687500 1.96480106875001 7.00842605937500 
 S -3.38099934687500 5.67624806875000 7.29940505937500 
