16

 C -3.19682628125000 1.20197889687500 5.50638214687500 
 C -3.10140928125000 5.65425389687500 5.60361714687500 
 C -4.41236228125000 0.784939896875000 4.88293614687500 
 C -4.19726328125000 5.01008789687500 4.95967714687500 
 N -2.15697828125000 1.53423489687500 4.65029014687500 
 N -2.08523128125000 6.01379289687500 4.80804314687500 
 N -4.29235928125000 0.624211896874999 3.55952014687500 
 N -4.01088428125000 4.76688789687500 3.65727314687500 
 N -5.11916228125000 1.24597489687500 7.33829014687500 
 N -4.85244028125000 5.07006089687500 7.42766814687500 
 S -5.87868728125000 0.749918896874999 5.91825714687500 
 S -5.50703228125000 4.48458489687500 5.95969014687500 
 S -2.74200428125000 0.992752896874999 3.17045014687500 
 S -2.48212728125000 5.42964889687500 3.30109014687500 
 S -3.44121528125000 1.48707589687500 7.27922814687500 
 S -3.41079628125000 5.88072589687500 7.30480914687500 
