16

 C -2.80831652187500 1.32475544375000 5.34442867187500 
 C -3.13950652187500 5.01388144375000 5.42992567187500 
 C -4.07053752187500 0.835526443750003 4.80608767187500 
 C -4.31852952187500 4.44510044375000 4.83924367187500 
 N -1.88009752187500 1.53367444375000 4.41366767187500 
 N -2.14713352187500 5.22400844375000 4.61008767187500 
 N -4.14112352187500 0.632037443750003 3.51791667187500 
 N -4.32089852187500 4.29608044375000 3.49336767187500 
 N -4.46237452187500 1.17133244375000 7.32713267187500 
 N -4.82633252187500 5.00971444375000 7.35625967187500 
 S -5.38565952187500 0.771191443750003 5.96124767187500 
 S -5.60886452187500 4.27058444375000 6.10550167187500 
 S -2.60342652187500 1.15651844375000 2.94799267187500 
 S -2.75392152187500 4.83876444375000 3.06091067187500 
 S -2.92262052187500 1.77968244375000 6.98074067187500 
 S -3.26904352187500 5.47072644375000 7.12826467187500 
