16

 C -3.16185752500000 1.42382617812500 5.57827419687500 
 C -2.99805452500000 5.30033917812500 5.87702319687500 
 C -4.34528652500000 0.969692178125000 4.90779019687500 
 C -4.15943752500000 4.87435117812500 5.13303619687500 
 N -2.11478952500000 1.68731917812500 4.78392919687500 
 N -1.98548852500000 5.56376217812500 5.06083019687500 
 N -4.18412552500000 0.977638178125001 3.59225519687500 
 N -3.98154052500000 4.67374417812500 3.82888719687500 
 N -4.92521052500000 1.06861817812500 7.48925719687500 
 N -4.82065152500000 4.91730217812500 7.60659019687500 
 S -5.66563752500000 0.712150178125000 6.04254819687500 
 S -5.55907252500000 4.79547617812500 6.16062019687500 
 S -2.57130152500000 1.31823617812500 3.27706419687500 
 S -2.41504552500000 5.08540717812500 3.55510019687500 
 S -3.32383552500000 1.55268017812500 7.32099719687500 
 S -3.21146052500000 5.28630617812500 7.66363319687500 
