16

 C -3.16852310000000 1.13318222187500 5.48622819062501 
 C -2.86637610000000 5.23192522187500 5.52462119062501 
 C -4.50767810000000 0.736756221875002 5.00131819062501 
 C -4.06004010000000 4.89657022187500 4.74613819062501 
 N -2.25480610000000 1.35579122187500 4.54314219062501 
 N -1.80114710000000 5.20940822187500 4.73653419062501 
 N -4.58653110000000 0.547876221875001 3.69253019062501 
 N -3.92588610000000 4.86842422187500 3.41544619062501 
 N -4.84610510000000 1.20707122187500 7.56284519062501 
 N -4.79439210000000 4.95470422187500 7.15439219062501 
 S -5.73903310000000 0.686314221875001 6.25604919062501 
 S -5.51450110000000 4.61932822187500 5.67153619062501 
 S -3.09381710000000 0.902973221875001 3.13452419062501 
 S -2.30898710000000 5.10753322187500 3.11903319062501 
 S -3.20646210000000 1.28089322187500 7.23558119062501 
 S -3.10750510000000 5.07961422187500 7.21849019062501 
