16

 C -3.30104150937500 1.25684804374999 5.52605331250000 
 C -3.28295350937501 5.02697604374999 5.14693731250000 
 C -4.54099250937501 1.02624204374999 4.82338531250000 
 C -4.46478050937501 4.41541804374999 4.59325631250000 
 N -2.22650350937500 1.24545404374999 4.71258131250000 
 N -2.28262250937501 5.19605304374999 4.29066431250000 
 N -4.52043550937501 0.928849043749993 3.47350131250000 
 N -4.31161250937500 4.07418804374999 3.28224731250000 
 N -5.18034050937501 1.14610004374999 7.33681731250000 
 N -4.95149450937500 4.90753804374999 7.06534531250000 
 S -5.90497450937501 0.763643043749993 5.91232531250000 
 S -5.81087050937500 4.47406304374999 5.68782631250000 
 S -2.86258150937500 1.11050104374999 3.19315731250000 
 S -2.70466250937501 4.55630904374999 2.89972131250000 
 S -3.55866150937501 1.44911804374999 7.29291831250000 
 S -3.38424450937501 5.33013104374999 6.86815331250000 
