16

 C -3.13507754687500 1.29439107812500 5.56965672812500 
 C -3.64351054687500 4.98959307812500 5.04617272812500 
 C -4.37368654687500 0.754461078124998 5.03335172812500 
 C -4.69488754687500 4.16736907812500 4.48487372812500 
 N -2.11120654687500 1.46017207812500 4.66752472812500 
 N -2.61435754687500 5.21137407812500 4.23023972812500 
 N -4.36903654687500 0.644429078124998 3.68007472812500 
 N -4.51666454687500 3.96856007812500 3.17566172812500 
 N -4.74564254687500 0.805786078124997 7.56585972812500 
 N -5.27538154687500 4.61588807812500 6.94784872812500 
 S -5.61422854687500 0.516919078124998 6.21631272812500 
 S -6.01696954687500 3.82557907812500 5.66594372812500 
 S -2.83022854687500 1.06294507812500 3.22927472812500 
 S -3.03033154687500 4.57854007812500 2.78084872812500 
 S -3.24206354687500 1.44057407812500 7.29411372812500 
 S -3.78339854687500 5.23056407812500 6.72784572812500 
