16

 C -3.06252318125000 1.53159697812500 5.35150248125000 
 C -3.11186018125000 5.19587897812500 5.70195648125000 
 C -4.32240118125000 1.05376497812500 4.76877248125000 
 C -4.28802518125000 4.77769597812500 5.07571148125000 
 N -2.01724918125000 1.43751997812500 4.53873348125000 
 N -2.09846318125000 5.39533897812500 4.85304948125000 
 N -4.20963818125000 0.561020978125003 3.55320648125000 
 N -4.21521218125000 4.55055197812500 3.78981148125000 
 N -4.74592818125000 1.39208297812500 7.24995948125000 
 N -4.87772018125000 4.78151497812500 7.60128648125000 
 S -5.60893218125000 1.13611997812500 5.90234448125000 
 S -5.62805218125000 4.74631997812500 6.16566748125000 
 S -2.56098418125000 0.744067978125003 3.11575448125000 
 S -2.61670418125000 4.95119297812500 3.34592148125000 
 S -3.17360018125000 1.62715097812500 7.06595948125000 
 S -3.26065618125000 5.34416197812500 7.37881248125000 
