16

 C -3.37921499062500 1.32616565000000 5.35621275000000 
 C -3.21648699062500 5.48515665000000 5.69191075000000 
 C -4.52561099062500 0.653951650000001 4.71990675000000 
 C -4.39436299062500 5.10574065000000 4.93034875000000 
 N -2.32479599062500 1.51607165000000 4.56371075000000 
 N -2.06139899062500 5.60785065000000 5.02056775000000 
 N -4.36862499062500 0.438393650000001 3.42143575000000 
 N -4.08391699062500 5.09106365000000 3.62392175000000 
 N -5.09807499062500 1.11808765000000 7.23465275000000 
 N -5.12367199062500 5.14014665000000 7.33275375000000 
 S -5.75727599062500 0.423445650000001 5.87400075000000 
 S -5.90674399062500 5.07540565000000 5.86906275000000 
 S -2.86728099062500 1.03268965000000 3.03925475000000 
 S -2.47411199062500 5.40098265000000 3.39744375000000 
 S -3.47276099062500 1.53315365000000 7.02148175000000 
 S -3.50843999062500 5.39448965000000 7.35261675000000 
