16

 C -2.91240737812500 1.87378213750000 5.40892250937500 
 C -3.55359537812500 5.14058213750000 5.56791550937500 
 C -4.02351337812500 1.11944313750000 4.72113350937500 
 C -4.67750037812500 4.51345413750000 4.88228350937500 
 N -1.93099337812500 2.21277313750000 4.60508950937500 
 N -2.62208337812500 5.59905713750000 4.73818650937500 
 N -3.81466337812500 0.867807137500002 3.44283550937500 
 N -4.46839237812500 4.27446513750000 3.60209050937500 
 N -4.58073837812500 1.11217313750000 7.27237350937500 
 N -5.28199337812500 4.75872013750000 7.36238050937500 
 S -5.17262637812500 0.427662137500003 5.85048850937500 
 S -5.83760937812500 3.92936913750000 6.01262350937500 
 S -2.32397137812500 1.51507813750000 3.12340250937500 
 S -3.01146037812500 5.02117513750000 3.25825350937500 
 S -3.10491237812500 1.89510213750000 7.16651150937500 
 S -3.75053937812500 5.36533613750000 7.24665050937500 
