16

 C -3.25192630000000 1.18308082500000 5.55921997187500 
 C -3.18217830000000 5.52149382500000 5.72104297187500 
 C -4.44347030000000 0.681329825000001 4.90051197187500 
 C -4.24069730000000 4.78526982500000 5.02684597187500 
 N -2.25416130000000 1.34042782500000 4.69292797187500 
 N -2.19360730000000 5.94641082500000 4.92525397187500 
 N -4.37962330000000 0.578651825000001 3.55939997187500 
 N -4.10723130000000 4.87818382500000 3.72457897187500 
 N -4.98017830000000 0.790019825000000 7.38529097187500 
 N -4.82607030000000 4.66140682500000 7.51651097187500 
 S -5.74873730000000 0.502029825000000 5.95396997187500 
 S -5.58204930000000 4.36275782500000 6.04440597187500 
 S -2.90809830000000 1.16965782500000 3.14479297187500 
 S -2.69498730000000 5.54857682500000 3.38098497187500 
 S -3.39665530000000 1.23550582500000 7.27959597187500 
 S -3.29566030000000 5.38142282500000 7.44616297187500 
