16

 C -3.18812274375000 1.16598553125000 5.52161339687500 
 C -3.10491274375000 5.69868853125000 5.60213139687500 
 C -4.38943374375000 0.746619531249997 4.90314539687500 
 C -4.17338574375000 4.96746153125000 4.93551939687500 
 N -2.15401074375000 1.45311753125000 4.64642639687500 
 N -2.06134474375000 5.95688853125000 4.82386939687500 
 N -4.32295274375000 0.655231531249997 3.56928539687500 
 N -3.98865674375000 4.78976853125000 3.66106239687500 
 N -5.09918174375000 1.25094553125000 7.34843739687500 
 N -4.84222874375000 5.07045853125000 7.39292139687500 
 S -5.84693974375000 0.747657531249997 5.92833839687500 
 S -5.53120374375000 4.46848853125000 5.97438139687500 
 S -2.74085274375000 1.00798353125000 3.15977439687500 
 S -2.47500474375000 5.41125753125000 3.30348239687500 
 S -3.43523174375000 1.47818053125000 7.27623639687500 
 S -3.43187274375000 5.90287053125000 7.28273639687500 
