16

 C -3.08087252812500 1.95266005625000 5.77148919375000 
 C -3.12604152812500 5.40249905625000 5.64208519375000 
 C -4.31894852812500 1.63608405625000 5.15075319375000 
 C -4.39375752812500 5.05404505625000 5.04704719375000 
 N -2.03910152812500 1.98017205625000 4.97116319375000 
 N -2.11315652812500 5.50609805625000 4.78193919375000 
 N -4.24027252812500 1.43293505625000 3.86070019375000 
 N -4.31430952812500 4.79503905625000 3.74888119375000 
 N -4.72894752812500 1.38906205625000 7.64477419375000 
 N -4.80973752812500 5.08532405625000 7.62098419375000 
 S -5.60935752812500 1.47682705625000 6.24773719375000 
 S -5.64577152812500 4.82658505625000 6.20830819375000 
 S -2.60844652812500 1.71031105625000 3.42819719375000 
 S -2.75931652812500 5.15134405625000 3.30935519375000 
 S -3.14016052812500 1.74960805625000 7.52816119375000 
 S -3.17886252812500 5.33728705625000 7.39449719375000 
