16

 C -3.11517915624999 1.37210674375000 5.39936861250000 
 C -3.40660215624999 5.28207674375000 5.34110661250000 
 C -4.39294515624999 1.02713574375000 4.81488061250000 
 C -4.61414515624999 4.59332974375000 4.79372861250000 
 N -2.18728915624999 1.50658874375000 4.49065061250000 
 N -2.47914615624999 5.58001974375000 4.46953861250000 
 N -4.42543515624999 0.772283743750003 3.51895961250000 
 N -4.51098215624999 4.34260074375000 3.46613661250000 
 N -4.69827915624999 1.18641074375000 7.42146661250000 
 N -4.79923515624999 4.57132574375000 7.38468861250000 
 S -5.62349215624999 0.931464743750003 6.06521661250000 
 S -5.77302915624999 4.21765274375000 6.06492361250000 
 S -2.81407115624999 0.919301743750002 3.06705361250000 
 S -3.05428115624999 4.95038574375000 2.99934261250000 
 S -3.08801215624999 1.57069574375000 7.12732161250000 
 S -3.37272915624999 5.21905074375000 7.08091361250000 
