16

 C -3.16937573437500 1.39458745625000 5.57926360000000 
 C -2.86637873437500 5.27896645625000 5.43137860000000 
 C -4.38477273437500 0.796182456250003 5.04305160000000 
 C -4.09851273437500 4.89111745625000 4.89039360000000 
 N -2.23249873437500 1.63748245625000 4.64028060000000 
 N -1.96302673437500 5.55974345625000 4.47928560000000 
 N -4.33352373437500 0.635973456250003 3.70802960000000 
 N -4.18337273437500 4.82707745625000 3.56103560000000 
 N -4.67175873437500 1.21641345625000 7.57347260000000 
 N -4.64101473437500 4.98650045625000 7.41452760000000 
 S -5.61198773437500 0.642510456250003 6.33648960000000 
 S -5.38369373437500 4.67762845625000 5.97557760000000 
 S -2.79924673437500 1.06372145625000 3.23943560000000 
 S -2.67933973437500 5.28381245625000 3.01757660000000 
 S -3.17692473437500 1.70941845625000 7.24016360000000 
 S -3.01774973437500 5.38940945625000 7.17627660000000 
