16

 C -2.91878670625000 1.26544270625000 5.30837402500000 
 C -2.91421670625000 5.12949870625000 5.61092302500000 
 C -4.08779270625000 0.674406706249999 4.62689702500000 
 C -4.13037670625000 4.54072370625000 5.14674602500000 
 N -1.95304770625000 1.61686470625000 4.46794402500000 
 N -2.01107470625000 5.35664670625000 4.68262302500000 
 N -4.02489470625000 0.656939706249999 3.27922202500000 
 N -4.16178370625000 4.27592770625000 3.85794102500000 
 N -4.73002370625000 0.668022706249999 7.18045602500000 
 N -4.36605370625000 4.90581470625000 7.70509702500000 
 S -5.44384470625000 0.265447706249999 5.69594002500000 
 S -5.32841970625000 4.50211870625000 6.43988102500000 
 S -2.49309870625000 1.26746670625000 2.94136102500000 
 S -2.64821870625000 4.84134370625000 3.27641502500000 
 S -3.17730970625000 1.30966270625000 7.05738602500000 
 S -2.80894570625000 5.27035270625000 7.29430502500000 
