16

 C -3.21137163750000 1.50538665312500 5.40429280937500 
 C -3.36040563750000 5.36027765312500 5.46861380937500 
 C -4.43950863750000 0.829941653124999 4.86021480937500 
 C -4.53866563750000 4.81967165312500 4.84179480937500 
 N -2.33681063750000 1.75439565312500 4.43429880937500 
 N -2.38218463750000 5.67197665312500 4.62148680937500 
 N -4.42772663750000 0.549069653124999 3.57991680937500 
 N -4.42428763750000 4.69897265312500 3.50811680937500 
 N -4.88773763750000 1.17769065312500 7.32855780937500 
 N -5.02578663750000 4.77856265312500 7.36064080937500 
 S -5.60958063750000 0.474193653124999 6.02080380937500 
 S -5.76873663750000 4.22374465312500 5.95501580937500 
 S -2.94549363750000 1.15819565312500 3.04623680937500 
 S -2.89553363750000 5.31646765312500 3.06973780937500 
 S -3.39198863750000 1.84334165312500 7.09828980937500 
 S -3.51154663750000 5.44195465312500 7.18407580937500 
