16

 C -3.03319231250000 1.43275114375000 5.43727288437500 
 C -3.06914231250000 5.13200814375000 5.63854888437500 
 C -4.13958431250000 0.823475143750003 4.79871888437500 
 C -4.17385431250000 4.45284914375000 4.91304488437500 
 N -2.00175031250000 1.71554114375000 4.58143788437500 
 N -1.99840131250000 5.32721914375000 4.90326988437500 
 N -4.04621231250000 0.633014143750004 3.47509088437500 
 N -3.90541431250000 4.17917014375000 3.60580588437500 
 N -4.76762431250000 0.962104143750003 7.35274288437500 
 N -5.08946331250000 4.98282414375000 7.23913488437500 
 S -5.40587031250000 0.381785143750004 5.91728788437500 
 S -5.67396731250000 4.40836214375000 5.84528088437500 
 S -2.55345031250000 1.34307614375000 3.04888888437500 
 S -2.32374331250000 4.78473214375000 3.37765888437500 
 S -3.22016431250000 1.67188914375000 7.15062288437500 
 S -3.49179331250000 5.52005614375000 7.24128688437500 
