16

 C -3.07192322187500 1.77296246562500 5.34659918437500 
 C -3.54275122187500 5.06381046562500 5.12561418437500 
 C -4.11611522187500 0.986860465624997 4.79793218437500 
 C -4.57137522187500 4.22114546562500 4.56335418437500 
 N -1.96023622187500 1.83880446562500 4.63364718437500 
 N -2.47590022187500 5.17865346562500 4.34934218437500 
 N -3.80517122187500 0.482183465624997 3.56836718437500 
 N -4.40808022187500 3.85481146562500 3.29235818437500 
 N -4.70308522187500 1.22927946562500 7.28764218437500 
 N -5.45250522187500 4.97913246562500 6.86808918437500 
 S -5.51863822187500 0.708793465624997 5.91724718437500 
 S -5.94462322187500 4.10748146562500 5.54191918437500 
 S -2.32594622187500 1.12251346562500 3.13430118437500 
 S -2.88682522187500 4.45768946562500 2.87716218437500 
 S -3.34337622187500 2.19954346562500 7.01659718437500 
 S -3.88840622187500 5.49961146562500 6.82068518437500 
