16

 C -3.25753856250000 1.53560211250000 5.62500580625000 
 C -3.52367556250000 5.34448611250000 5.57919380625000 
 C -4.47096156250000 1.02382711250000 5.05975680625000 
 C -4.56031456250000 4.56343111250000 5.00929580625000 
 N -2.25572756250000 1.75594511250000 4.72616780625000 
 N -2.47462056250000 5.70513311250000 4.75754880625000 
 N -4.40885856250000 0.903716112500003 3.74849180625000 
 N -4.42095856250000 4.50389011250000 3.66618480625000 
 N -4.91726456250000 1.11408911250000 7.59504880625000 
 N -5.23848656250000 4.74955611250000 7.52173180625000 
 S -5.77602156250000 0.748148112500004 6.20289180625000 
 S -5.90499956250000 4.27533911250000 6.05630480625000 
 S -2.96667456250000 1.49034811250000 3.19360280625000 
 S -2.97366856250000 5.16113211250000 3.24709380625000 
 S -3.37852056250000 1.50358811250000 7.33731980625000 
 S -3.68730756250000 5.43724811250000 7.34300580625000 
