16

 C -3.19304241250000 1.29688508125000 5.50739465312500 
 C -3.09283841250000 5.62386808125000 5.61520765312500 
 C -4.45389141250000 0.832773081250000 4.85380265312500 
 C -4.22386341250000 5.03227908125000 4.95488065312500 
 N -2.20893041250000 1.58615808125000 4.68368265312500 
 N -2.12489641250000 6.06629708125000 4.79654865312500 
 N -4.26260241250000 0.577839081250000 3.55659065312500 
 N -4.01536641250000 4.75376008125000 3.65096165312500 
 N -5.12551141250000 1.23598708125000 7.32349065312500 
 N -4.87842041250000 5.06558408125000 7.45830265312500 
 S -5.89420441250000 0.755324081250000 5.90196965312500 
 S -5.47424541250000 4.50997708125000 5.95508165312500 
 S -2.73814241250000 0.984109081250000 3.18073965312500 
 S -2.50275641250000 5.44594608125000 3.29584165312500 
 S -3.45448741250000 1.49495008125000 7.26538565312500 
 S -3.38169141250000 5.85237508125000 7.33166165312500 
