16

 C -2.89539479062500 1.25293050625000 5.72005418125000 
 C -2.95989279062500 4.70930250625000 5.51966818125000 
 C -4.19403979062500 1.22131750625000 5.09923718125000 
 C -4.14084879062500 4.44056450625000 4.80373618125000 
 N -1.83403379062500 1.05986250625000 4.93558318125000 
 N -1.87457779062500 4.64242450625000 4.77715218125000 
 N -4.11699679062500 0.917354506249998 3.79024518125000 
 N -3.99921279062500 4.27133950625000 3.48522718125000 
 N -4.65117079062500 1.43167550625000 7.55263618125000 
 N -4.90836079062500 4.79785050625000 7.23401018125000 
 S -5.55456779062500 1.39929950625000 6.18465618125000 
 S -5.57784479062500 4.37666050625000 5.69161818125000 
 S -2.42336679062500 0.944037506249998 3.38943418125000 
 S -2.37167279062500 4.39884350625000 3.20757018125000 
 S -3.02167379062500 1.61636650625000 7.39382118125000 
 S -3.28783079062500 5.12474550625000 7.17712318125000 
