16

 C -3.09915313437500 1.45996003437500 5.51970321250000 
 C -2.97521913437500 4.82994303437500 5.33436121250000 
 C -4.29731113437500 1.02100203437500 4.88078321250000 
 C -4.27584213437500 4.73155003437500 4.75004721250000 
 N -2.07744313437500 1.60328303437500 4.70542021250000 
 N -1.92767813437500 4.77237703437500 4.47233121250000 
 N -4.16470413437500 0.789209034374997 3.53232221250000 
 N -4.19005113437500 4.49300203437500 3.42415021250000 
 N -4.88357613437500 1.34503303437500 7.41665221250000 
 N -4.67995613437500 5.21737803437500 7.21443221250000 
 S -5.59431213437500 0.878174034374997 5.99553621250000 
 S -5.57588813437500 4.93269403437500 5.87558421250000 
 S -2.59951013437500 1.09318903437500 3.14279721250000 
 S -2.60246513437500 4.48627403437500 2.96445121250000 
 S -3.25793913437500 1.86425403437500 7.23747621250000 
 S -3.05293713437500 5.31825403437500 7.04546221250000 
