16

 C -3.08179759062500 1.57188016875000 5.71188459375000 
 C -3.11310759062500 4.87541316875000 5.62480259375000 
 C -4.22865959062500 1.19690516875000 4.93152859375000 
 C -4.28398359062500 4.42457516875000 4.88281259375000 
 N -1.92612659062500 1.60298316875000 5.09797859375000 
 N -1.98730959062500 4.91881116875000 4.87000659375000 
 N -3.93557959062500 0.947331168750003 3.62051759375000 
 N -4.06970559062500 4.06621916875000 3.62023059375000 
 N -4.97616559062500 1.19020416875000 7.47630559375000 
 N -5.19002159062500 4.67543616875000 7.15163059375000 
 S -5.72039859062500 1.11306816875000 5.93258259375000 
 S -5.82062059062500 4.38782716875000 5.60904959375000 
 S -2.24949759062500 1.34412716875000 3.47997959375000 
 S -2.45042659062500 4.35685616875000 3.34808659375000 
 S -3.27485559062500 1.59533816875000 7.36617159375000 
 S -3.62835959062500 4.99469116875000 7.32264259375000 
