16

 C -3.18800499062500 1.46803595000000 5.64710079062500 
 C -3.46419399062500 5.24523395000000 5.45541979062500 
 C -4.35547399062500 0.866242950000004 5.05250579062500 
 C -4.63186499062500 4.60208395000000 4.82992979062500 
 N -2.17351299062500 1.71497195000000 4.77039079062500 
 N -2.47596799062500 5.58604195000000 4.63682879062500 
 N -4.25603999062500 0.606935950000003 3.75841279062500 
 N -4.41329399062500 4.38914295000000 3.55727879062500 
 N -4.89372099062500 0.811949950000003 7.60602179062500 
 N -5.36386699062500 4.98211095000000 7.23452179062500 
 S -5.64022199062500 0.432515950000004 6.21489879062500 
 S -5.88746899062500 4.10248095000000 5.89637379062500 
 S -2.77922999062500 1.22247295000000 3.27711779062500 
 S -2.90021499062500 4.98359595000000 3.15634679062500 
 S -3.43048299062500 1.56583895000000 7.37282179062500 
 S -3.86803899062500 5.65285195000000 7.16586579062500 
