16

 C -3.28360772187500 1.43415742187500 5.66728734062500 
 C -3.55386272187500 5.34111842187500 5.52405734062500 
 C -4.41165872187500 0.841667421875001 5.04365434062500 
 C -4.59439472187500 4.55613842187500 4.88420334062500 
 N -2.33052472187500 1.80318542187500 4.78499234062500 
 N -2.49531372187500 5.59773242187500 4.73893834062500 
 N -4.36114972187500 0.779317421875001 3.71747134062500 
 N -4.47242572187500 4.48236742187500 3.55909434062500 
 N -4.86222472187500 0.937348421875001 7.57949634062500 
 N -5.37612972187500 4.94210242187500 7.29356334062500 
 S -5.71306672187500 0.501162421875001 6.15904434062500 
 S -5.91954872187500 4.12270242187500 5.92528334062500 
 S -2.81008472187500 1.27360842187500 3.28396634062500 
 S -2.96905472187500 5.04383142187500 3.22799234062500 
 S -3.33185972187500 1.55894242187500 7.39424034062500 
 S -3.80930572187500 5.56714242187500 7.13527934062500 
