16

 C -2.76333074062500 1.68711553437500 5.38425957812500 
 C -3.41242774062500 5.10462553437500 5.57685457812500 
 C -3.81476774062500 0.863283534375002 4.76469857812500 
 C -4.51063774062500 4.40147853437500 4.94363657812500 
 N -1.83539874062500 2.11059553437500 4.53435457812500 
 N -2.43016274062500 5.51232253437500 4.76494357812500 
 N -3.70175174062500 0.797514534375002 3.42850457812500 
 N -4.37516474062500 4.39261053437500 3.62059057812500 
 N -4.38962774062500 1.13469053437500 7.32916757812500 
 N -5.21561074062500 4.59676653437500 7.43949757812500 
 S -5.07326574062500 0.468503534375002 5.97370357812500 
 S -5.86001674062500 3.96748453437500 5.98391457812500 
 S -2.33182774062500 1.64533753437500 3.00551157812500 
 S -2.95785974062500 5.11342153437500 3.17147857812500 
 S -2.99906274062500 1.98544053437500 7.07210857812500 
 S -3.72146574062500 5.23195553437500 7.30886657812500 
