16

 C -3.21345201562500 1.17491301250000 5.56110934375000 
 C -3.31339201562500 4.96416001250000 5.55379934375000 
 C -4.42566501562500 0.877164012499994 4.88533234375000 
 C -4.48866101562500 4.45213801250000 4.87385734375000 
 N -2.18433601562500 1.40582701249999 4.77823834375000 
 N -2.32268801562500 5.21718701249999 4.64308634375000 
 N -4.29987901562500 0.914829012499995 3.54365334375000 
 N -4.39946001562500 4.46867601250000 3.57472134375000 
 N -4.95641601562500 1.25291901250000 7.45583234375000 
 N -5.26266201562500 4.72097201250000 7.26814534375000 
 S -5.73986801562500 0.882724012499995 6.01390634375000 
 S -5.79050501562500 4.12926801250000 5.88508434375000 
 S -2.68225801562500 1.18465601249999 3.26752334375000 
 S -2.91072701562500 4.95917201249999 3.11629434375000 
 S -3.28630101562500 1.61417701250000 7.21316334375000 
 S -3.61968801562500 5.12352501249999 7.32470934375000 
