16

 C -2.93590580000000 1.52416044062500 5.34482817812500 
 C -3.29684780000000 5.27371044062500 5.91054717812500 
 C -4.16735480000000 1.03234544062500 4.71819017812500 
 C -4.44401280000000 4.87431044062500 5.16987817812500 
 N -1.91286880000000 1.53377344062500 4.48593417812500 
 N -2.21495980000000 5.47121344062500 5.20643617812500 
 N -4.05264380000000 0.789517440625001 3.42628217812500 
 N -4.21660480000000 4.73487344062500 3.88464917812500 
 N -4.84062180000000 1.29235244062500 7.13533817812500 
 N -5.04985580000000 5.06859644062500 7.69755117812500 
 S -5.49156180000000 0.684134440625000 5.72370517812500 
 S -5.79068580000000 4.78390844062500 6.28914817812500 
 S -2.55941380000000 1.18589144062500 2.99389217812500 
 S -2.54618980000000 5.12631144062500 3.68710717812500 
 S -3.27010880000000 1.78038444062500 7.11792517812500 
 S -3.47291480000000 5.51802644062500 7.58342417812500 
