16

 C -3.30297291250000 1.30848615937500 5.56264472500000 
 C -3.36002291250000 4.96026015937500 5.26509672500000 
 C -4.48318591250000 0.716984159374999 4.91698772500000 
 C -4.55603991250000 4.43619215937500 4.60928872500000 
 N -2.34176691250000 1.57303415937500 4.66872472500000 
 N -2.34941191250000 5.18432615937500 4.41443772500000 
 N -4.36644191250000 0.604933159374999 3.58729172500000 
 N -4.52643191250000 4.44401015937500 3.28587472500000 
 N -5.02437391250000 0.915179159375000 7.40663472500000 
 N -5.16293191250000 4.56718915937500 7.11947072500000 
 S -5.80044191250000 0.415729159374999 6.04992672500000 
 S -5.99088291250000 4.37048315937500 5.68949672500000 
 S -2.82620491250000 1.10229415937500 3.15576172500000 
 S -2.97791791250000 4.94203715937500 2.89712372500000 
 S -3.50305691250000 1.55318415937500 7.31184472500000 
 S -3.54682191250000 5.03868015937500 6.96237272500000 
