16

 C -3.10470551562500 1.52609460937500 5.29371077812500 
 C -3.19121651562500 5.39906460937500 5.78002277812500 
 C -4.26945751562500 0.834602609374996 4.70798177812500 
 C -4.34121651562500 4.84360960937500 5.13121977812500 
 N -2.06406751562500 1.69234160937500 4.49123577812500 
 N -2.17987151562500 5.57513160937500 4.98202677812500 
 N -4.05993651562500 0.441462609374996 3.42671777812500 
 N -4.23518951562500 4.54611060937500 3.86034577812500 
 N -4.83612951562500 1.43208160937500 7.17234277812500 
 N -5.09850451562500 5.14342160937500 7.56999477812500 
 S -5.64867951562500 0.794696609374997 5.88573677812500 
 S -5.71766151562500 4.62187460937500 6.12524977812500 
 S -2.44493951562500 0.954409609374997 3.09058577812500 
 S -2.65400051562500 5.00593560937500 3.50444577812500 
 S -3.26633851562500 1.91982860937500 6.95820777812500 
 S -3.51802051562500 5.53090560937500 7.55128677812500 
