16

 C -3.08890743437500 1.44030981875000 5.48159045625000 
 C -3.35601443437500 5.30589981875000 5.43730445625000 
 C -4.32207143437500 0.933693818749997 4.91256445625000 
 C -4.52472043437500 4.81366281875000 4.73681245625000 
 N -2.08513543437500 1.62204481875000 4.63561245625000 
 N -2.31480943437500 5.47868681875000 4.63973245625000 
 N -4.18197043437500 0.727371818749997 3.59721845625000 
 N -4.36916543437500 4.67613481875000 3.42201545625000 
 N -4.81882243437500 1.24272081875000 7.43931545625000 
 N -5.09042543437500 4.72522781875000 7.21247545625000 
 S -5.60566143437500 0.652847818749997 6.07069345625000 
 S -5.85158643437500 4.45272981875000 5.75117045625000 
 S -2.64314943437500 1.27677681875000 3.12952945625000 
 S -2.79670743437500 5.20628981875000 3.10269445625000 
 S -3.23766943437500 1.60976581875000 7.21822045625000 
 S -3.52891443437500 5.25011681875000 7.22887545625000 
