16

 C -2.81183612500000 1.37319579062500 5.33479676250000 
 C -3.11339512500000 5.06066279062500 5.44325876250000 
 C -4.09895812500000 0.878367790625004 4.79543176250000 
 C -4.29421212500000 4.49754779062500 4.87322476250000 
 N -1.89710312500000 1.53451779062500 4.44637876250000 
 N -2.12325612500000 5.24372779062500 4.59990476250000 
 N -4.08809612500000 0.609176790625004 3.49848476250000 
 N -4.29306112500000 4.28421979062500 3.54605576250000 
 N -4.45115612500000 1.15378679062500 7.30902976250000 
 N -4.87021512500000 4.97003779062500 7.33965576250000 
 S -5.39283312500000 0.737353790625003 6.00931776250000 
 S -5.60106012500000 4.29321079062500 6.07832076250000 
 S -2.55639612500000 1.18703379062500 2.95939576250000 
 S -2.70803612500000 4.79495679062500 3.09005876250000 
 S -2.93560112500000 1.77199479062500 6.95265376250000 
 S -3.27458712500000 5.46850479062500 7.14996176250000 
