16

 C -3.20727993125000 0.884432912499999 5.50588631250000 
 C -3.23650293125000 4.92005291250000 5.70703631250000 
 C -4.41141893125000 0.582323912500000 4.70361531250000 
 C -4.46802193125000 4.46915791250000 5.08663031250000 
 N -2.22927193125000 1.34200591250000 4.76081531250000 
 N -2.22286993125000 4.96318591250000 4.82708231250000 
 N -4.28268793125000 0.834108912500000 3.40190531250000 
 N -4.42010793125000 4.38590091250000 3.75271931250000 
 N -5.07858593125000 0.583884912500000 7.17381231250000 
 N -4.97479393125000 4.93337791250000 7.57514831250000 
 S -5.78928593125000 0.188334912500000 5.67110031250000 
 S -5.79561993125000 4.28655191250000 6.23977731250000 
 S -2.70650693125000 1.33967191250000 3.15722731250000 
 S -2.86644193125000 4.73167791250000 3.31241131250000 
 S -3.43919893125000 0.788169912500000 7.23660731250000 
 S -3.25554493125000 4.99017791250000 7.41554231250000 
