16

 C -2.98180049375000 1.54382567187500 5.70107663750000 
 C -3.12635349375000 4.61011167187500 5.54983763750000 
 C -4.23963149375000 1.11911967187500 5.12482863750000 
 C -4.40485649375000 4.36193067187500 4.87188963750000 
 N -1.92360049375000 1.65915967187500 4.85646263750000 
 N -2.09334849375000 4.66879167187500 4.73024663750000 
 N -4.18890749375000 0.943923671875001 3.79181263750000 
 N -4.26758149375000 4.27213967187500 3.54960863750000 
 N -4.80767949375000 1.51470967187500 7.60773763750000 
 N -4.87077449375000 4.53265967187500 7.36013563750000 
 S -5.61942849375000 1.23020067187500 6.17247163750000 
 S -5.74511449375000 4.23521067187500 5.97202263750000 
 S -2.61238149375000 1.23871767187500 3.43124463750000 
 S -2.63103949375000 4.48243067187500 3.22641263750000 
 S -3.12492149375000 1.70929067187500 7.46001563750000 
 S -3.21575949375000 4.72941267187500 7.28177363750000 
