16

 C -2.89752109375000 1.54705290937500 5.34218301875000 
 C -3.17111809375000 5.26704390937500 5.50268301875000 
 C -4.13116809375000 0.949679909375001 4.80851001875000 
 C -4.22875709375000 4.61074690937500 4.85158801875000 
 N -1.99272009375000 1.82426890937500 4.45847901875000 
 N -2.08768909375000 5.40756790937500 4.75473001875000 
 N -4.05324109375000 0.751362909375001 3.52262401875000 
 N -3.97264209375000 4.14448890937500 3.65213901875000 
 N -4.57751609375000 1.02931890937500 7.29288301875000 
 N -4.93199209375000 4.87005190937500 7.30214001875000 
 S -5.29871009375000 0.473017909375000 5.90319201875000 
 S -5.62865309375000 4.43067090937500 5.89743501875000 
 S -2.50533509375000 1.16392490937500 3.02676801875000 
 S -2.37905809375000 4.62395190937500 3.35104101875000 
 S -3.05803209375000 1.73474990937500 7.14563001875000 
 S -3.35541009375000 5.42298790937500 7.26998201875000 
