16

 C -3.12939043750000 1.03543667812500 5.53072390937500 
 C -3.14967243750000 5.49808167812500 5.56248890937500 
 C -4.42318343750000 0.869364678125003 4.85494990937500 
 C -4.21112943750000 4.86415367812500 4.85079890937500 
 N -2.08195743750000 1.07592967812500 4.66204690937500 
 N -2.09613043750000 5.76706667812500 4.78850390937500 
 N -4.35516343750000 0.789452678125003 3.52689990937500 
 N -4.00725543750000 4.62529967812500 3.54312590937500 
 N -4.87375143750000 1.13066467812500 7.38131690937500 
 N -4.97499443750000 5.18041867812500 7.36179990937500 
 S -5.75938743750000 0.723692678125003 5.98777690937500 
 S -5.49555343750000 4.45071067812500 5.91885090937500 
 S -2.73065843750000 1.04895867812500 3.18635890937500 
 S -2.44294443750000 5.22494967812500 3.27016290937500 
 S -3.22452743750000 1.42989367812500 7.18051790937500 
 S -3.53482543750000 5.99329167812500 7.18473790937500 
