16

 C -2.97802467500000 1.45359227812500 5.57081056562500 
 C -2.97158567500000 5.04052327812500 5.18819856562500 
 C -4.14504967500000 0.995840278125001 4.85947856562500 
 C -4.28413867500000 4.81326327812500 4.61546256562500 
 N -1.84649667500000 1.42444527812500 4.82438656562500 
 N -1.99557967500000 4.89835427812500 4.32280756562500 
 N -3.96869867500000 0.648459278125000 3.56885056562500 
 N -4.31047767500000 4.70685527812500 3.28753056562500 
 N -4.84807367500000 1.41063727812500 7.28601756562500 
 N -4.71843567500000 5.17138227812500 7.12866656562500 
 S -5.59671267500000 0.896979278125000 5.83859456562500 
 S -5.61224467500000 4.81389827812500 5.78554856562500 
 S -2.37894767500000 0.994988278125001 3.27616056562500 
 S -2.66797567500000 4.62439227812500 2.84118956562500 
 S -3.23996367500000 1.77834727812500 7.23021156562500 
 S -3.08993167500000 5.31659227812500 6.88684056562500 
