16

 C -3.11692793437500 1.14997449062500 5.76314972500000 
 C -3.13456793437500 4.98578949062500 5.60267472500000 
 C -4.44958393437500 0.835695490625000 5.18534972500000 
 C -4.38864193437500 4.64261349062500 4.98188972500000 
 N -2.08648393437500 1.20211949062500 4.92767072500000 
 N -2.17298593437500 5.22772149062500 4.70224672500000 
 N -4.35456193437500 0.588122490625000 3.88385372500000 
 N -4.33625393437500 4.45265549062500 3.64002572500000 
 N -4.84239493437500 1.51409349062500 7.68719372500000 
 N -4.91026793437500 5.03049149062500 7.50192072500000 
 S -5.77076193437500 1.16525449062500 6.28504272500000 
 S -5.70026293437500 4.54570249062500 6.12731372500000 
 S -2.78517093437500 0.826632490624999 3.42029972500000 
 S -2.81858993437500 5.03604749062500 3.20519672500000 
 S -3.18210493437500 1.65932849062500 7.39215572500000 
 S -3.29399993437500 5.47083749062500 7.23406572500000 
