16

 C -3.29858295312500 1.09682546875000 5.94967747500000 
 C -2.91532595312500 4.78710446875000 5.29545647500000 
 C -4.44399295312500 0.679330468749999 5.19223747500000 
 C -4.20805795312500 4.43267446875000 4.69425547500000 
 N -2.27262295312500 1.47207246875000 5.21203047500000 
 N -1.90573095312500 4.83951646875000 4.37576547500000 
 N -4.22745995312500 0.684360468749998 3.88221447500000 
 N -4.20138595312500 4.47059846875000 3.35240247500000 
 N -5.01056395312500 0.479704468749998 7.73455847500000 
 N -4.73138295312500 4.57618446875000 7.19392447500000 
 S -5.84509395312500 0.344430468749998 6.25484047500000 
 S -5.59724195312500 4.54410446875000 5.80040847500000 
 S -2.67882195312500 1.29786946875000 3.61847947500000 
 S -2.65532395312500 4.74548446875000 2.88207847500000 
 S -3.54983895312500 1.32290546875000 7.69315647500000 
 S -3.06709395312500 4.87947146875000 7.07652547500000 
