16

 C -3.09809107187501 1.23742210000000 5.45953475312500 
 C -2.87580807187501 5.27208410000000 5.48214575312500 
 C -4.25120107187501 0.886348099999998 4.68762675312500 
 C -4.13923407187501 4.93218910000000 4.85880175312500 
 N -1.94169207187501 1.44619410000000 4.83224875312500 
 N -1.88431207187501 5.22407110000000 4.61726075312500 
 N -3.92630607187501 0.809652099999998 3.35826075312500 
 N -4.15300807187501 4.66632010000000 3.53945675312500 
 N -4.93477007187501 1.29104110000000 7.18199075312500 
 N -4.79703907187501 5.17374610000000 7.37910375312500 
 S -5.60645307187501 0.684334099999998 5.83354475312500 
 S -5.50606107187501 4.93145610000000 5.87892875312500 
 S -2.28383107187501 1.04133310000000 3.30094675312500 
 S -2.58793607187501 4.86057910000000 3.12895475312500 
 S -3.28713307187501 1.42147410000000 7.17771275312500 
 S -3.08670007187501 5.47324610000000 7.28615875312500 
