16

 C -2.80899468437500 1.47063408125000 5.81070616562500 
 C -3.37113368437500 5.27379108125000 5.61253216562500 
 C -4.12887468437500 1.34096908125000 5.18981516562500 
 C -4.60471068437500 4.94311208125000 4.97816816562500 
 N -1.80378868437500 1.37580708125000 4.92749216562500 
 N -2.34461468437500 5.43139608125000 4.81384916562500 
 N -4.08851768437500 1.30575608125000 3.86252316562500 
 N -4.46300668437500 4.78330408125000 3.66641416562500 
 N -4.58759468437500 1.34517408125000 7.74822716562500 
 N -5.07123968437500 4.97312008125000 7.48182316562500 
 S -5.43407768437500 1.30355308125000 6.28668016562500 
 S -5.91038968437500 4.72593408125000 6.06878516562500 
 S -2.44787368437500 1.38058708125000 3.41190316562500 
 S -2.86831668437500 5.00706108125000 3.31713916562500 
 S -2.93008368437500 1.53323208125000 7.59584016562500 
 S -3.45702368437500 5.16495008125000 7.32154616562500 
