16

 C -3.29921224062500 0.915262456249996 5.39740642500000 
 C -3.21308424062500 4.93566645625000 5.62300742500000 
 C -4.59511724062500 0.712531456249996 4.73710942500000 
 C -4.45188024062500 4.57769145625000 4.98949042500000 
 N -2.25999924062500 1.12205245625000 4.60878642500000 
 N -2.24288524062500 5.17717345625000 4.74099042500000 
 N -4.48872824062500 0.822760456249996 3.41363642500000 
 N -4.38727024062500 4.37758645625000 3.69451542500000 
 N -4.98618924062500 0.589167456249996 7.35842742500000 
 N -5.02210524062500 4.62771245625000 7.45826242500000 
 S -5.83669524062500 0.355815456249996 5.91360042500000 
 S -5.83301024062500 4.46268445625000 5.99664442500000 
 S -2.82782724062500 0.979011456249996 3.08771442500000 
 S -2.84651024062500 4.85917045625000 3.20310942500000 
 S -3.33882924062500 0.803723456249996 7.14071542500000 
 S -3.31757724062500 4.76476645625000 7.34144042500000 
