16

 C -2.95664617187500 1.29066043125000 5.67555586562500 
 C -2.94988317187500 5.07219043125000 5.41654986562500 
 C -4.19966617187500 0.847051431250002 5.03556286562500 
 C -4.10603317187500 4.34547743125000 4.97879186562500 
 N -1.91843517187500 1.45759543125000 4.85439186562500 
 N -1.99018117187500 5.22352643125000 4.48636186562500 
 N -4.08107917187500 0.699533431250003 3.73744186562500 
 N -3.97533617187500 3.89145243125000 3.73360886562500 
 N -4.76394517187500 1.00610543125000 7.47446086562500 
 N -4.80464517187500 5.17279743125000 7.27921786562500 
 S -5.53929917187500 0.789547431250003 6.06570086562500 
 S -5.42961417187500 4.16662443125000 6.05108086562500 
 S -2.56031017187500 0.973088431250003 3.34267086562500 
 S -2.51364517187500 4.34121943125000 3.16803386562500 
 S -3.21429517187500 1.56964543125000 7.35759586562500 
 S -3.16394117187500 5.62542043125000 7.06362186562500 
