16

 C -3.71747567812500 1.19473090000001 5.60826630625000 
 C -3.00447167812500 5.02543090000001 5.36658730625000 
 C -4.82497067812500 0.556385900000006 4.99169330625000 
 C -4.23830267812500 4.46936390000001 4.83956030625000 
 N -2.68161667812500 1.48884390000001 4.83828530625000 
 N -2.02870867812500 5.11619090000001 4.46486630625000 
 N -4.65376167812500 0.370992900000005 3.70663630625000 
 N -4.16551567812500 4.05708690000001 3.57346830625000 
 N -5.43947767812500 0.571099900000005 7.38334930625000 
 N -4.72886367812500 4.89892890000000 7.31049130625000 
 S -6.18345967812500 0.169173900000006 5.90537430625000 
 S -5.48325667812500 4.31705490000001 5.93537130625000 
 S -3.17052767812500 1.04019290000001 3.32686230625000 
 S -2.63967667812500 4.55058190000001 3.03134530625000 
 S -3.86074667812500 1.16942290000001 7.33936530625000 
 S -3.13606867812500 5.43111790000001 7.11112830625000 
