16

 C -3.08132130000000 1.65136257812500 5.43695232187500 
 C -2.98331430000000 5.25193057812500 5.47909632187500 
 C -4.33773830000000 1.41619857812500 4.74982832187500 
 C -4.25700930000000 4.96471457812500 4.88513032187500 
 N -2.05068730000000 1.76625057812500 4.58851932187500 
 N -1.98930630000000 5.49934857812500 4.60219932187500 
 N -4.21540830000000 1.13053457812500 3.45429032187500 
 N -4.18038630000000 4.82170657812500 3.56020732187500 
 N -4.88905330000000 1.29837357812500 7.32813332187500 
 N -4.76328930000000 4.95137157812500 7.36046932187500 
 S -5.71774630000000 1.19203857812500 5.85621732187500 
 S -5.60322730000000 4.88206057812500 5.94597032187500 
 S -2.63394630000000 1.47944257812500 3.06376532187500 
 S -2.66231430000000 5.21339657812500 3.11097832187500 
 S -3.25045930000000 1.57972557812500 7.19922132187500 
 S -3.11561130000000 5.19088657812500 7.24709732187500 
