16

 C -3.12012555937500 1.30698839687500 5.45436919375000 
 C -3.05063555937500 5.14424039687500 5.67026519375000 
 C -4.24772855937500 0.643501396875004 4.79027919375000 
 C -4.15562055937500 4.53932239687500 4.86616719375000 
 N -2.14348155937500 1.73430039687500 4.74581219375000 
 N -1.97373855937500 5.30728339687500 4.88403919375000 
 N -4.12904955937500 0.659274396875005 3.47054019375000 
 N -4.02827155937500 4.35520239687500 3.57761019375000 
 N -4.86342755937500 0.917849396875003 7.29642119375000 
 N -5.24919455937500 5.10473739687500 7.15329319375000 
 S -5.60671555937500 0.358081396875003 5.93894819375000 
 S -5.61249155937500 4.26538539687500 5.76072819375000 
 S -2.54403455937500 1.35829539687500 3.15590519375000 
 S -2.44960655937500 4.86358539687500 3.31059819375000 
 S -3.32668255937500 1.57962139687500 7.10897519375000 
 S -3.55618455937500 5.60609539687500 7.26890519375000 
