16

 C -3.15840160312500 1.67672476562499 5.40721445000000 
 C -3.68096660312500 5.04505476562499 5.01207145000000 
 C -4.11348260312500 0.722373765624993 4.93707645000000 
 C -4.69270260312500 4.21417476562499 4.41948445000000 
 N -2.15976660312500 1.93265476562499 4.53411545000000 
 N -2.62296260312500 5.21297876562499 4.24971045000000 
 N -3.91701960312500 0.303802765624993 3.65133645000000 
 N -4.50486560312500 3.92528976562499 3.11929445000000 
 N -4.83779760312500 1.33455076562499 7.40129445000000 
 N -5.43053760312500 4.80943376562499 6.83336445000000 
 S -5.49680660312500 0.564950765624993 6.07792445000000 
 S -5.99785960312500 3.95008076562499 5.55826945000000 
 S -2.56711260312500 1.07905076562499 3.15739145000000 
 S -2.95609160312500 4.57899276562499 2.79802345000000 
 S -3.40115960312500 2.14844076562499 7.16873545000000 
 S -3.84343260312500 5.21654576562499 6.74149545000000 
