16

 C -3.02744439062500 1.30662260000000 5.25713381250000 
 C -2.88622739062500 5.10496560000000 5.59165481250000 
 C -4.22210539062500 0.719669599999998 4.59592881250000 
 C -4.16412139062500 4.55894660000000 5.13814781250000 
 N -2.06983039062500 1.73202460000000 4.46431781250000 
 N -2.00698239062500 5.30456960000000 4.58937781250000 
 N -4.16558139062500 0.821018599999998 3.26563081250000 
 N -4.23343339062500 4.36011760000000 3.82857281250000 
 N -4.69260739062500 0.622541599999998 7.13317781250000 
 N -4.51982439062500 5.07988660000000 7.64519581250000 
 S -5.46936239062500 0.208552599999998 5.68440081250000 
 S -5.37996539062500 4.51206960000000 6.33753381250000 
 S -2.66959439062500 1.53860960000000 2.96469381250000 
 S -2.71347039062500 4.80917660000000 3.17979381250000 
 S -3.10494839062500 1.24039760000000 7.00353681250000 
 S -2.88807339062500 5.39855360000000 7.35807781250000 
