16

 C -2.95450088750000 1.23113730000000 5.57323150937500 
 C -2.90154788750000 5.14185030000000 5.64865950937500 
 C -4.14914388750000 0.866927299999999 4.85037550937500 
 C -4.06039588750000 4.52876330000000 5.04267050937500 
 N -1.90806788750000 1.42683430000000 4.74921750937500 
 N -1.92354888750000 5.44909030000000 4.77525350937500 
 N -4.01955788750000 0.553903299999998 3.57892050937500 
 N -3.99711588750000 4.32094630000000 3.74925450937500 
 N -4.80889088750000 0.979414299999998 7.27942150937500 
 N -4.68263688750000 4.64315530000000 7.46194850937500 
 S -5.53557688750000 0.666211299999999 5.83012450937500 
 S -5.46839188750000 4.34061430000000 6.01976850937500 
 S -2.41370088750000 0.828946299999998 3.27330150937500 
 S -2.46824088750000 4.87472430000000 3.30689250937500 
 S -3.19942988750000 1.29877630000000 7.28376750937500 
 S -3.19368788750000 5.36548630000000 7.34217250937500 
