16

 C -3.38275987500000 1.29032253750000 5.43863534375000 
 C -3.30098787500000 5.15977453750000 5.80393934375000 
 C -4.56984987500000 0.827993537500001 4.73628734375000 
 C -4.52517787500000 4.70769153750000 5.18018234375000 
 N -2.34593587500000 1.62887253750000 4.67509234375000 
 N -2.26302387500000 5.23427253750000 4.98401634375000 
 N -4.48877887500000 0.987721537500001 3.38217534375000 
 N -4.49567887500000 4.74196053750000 3.85410434375000 
 N -5.26425487500000 0.946169537500001 7.14121834375000 
 N -5.04054287500000 4.84706053750000 7.73234934375000 
 S -5.95296587500000 0.419236537500002 5.72493934375000 
 S -5.76195387500000 4.37666253750000 6.29536334375000 
 S -2.94092387500000 1.33157453750000 3.08372234375000 
 S -2.85530487500000 5.08061953750000 3.46377334375000 
 S -3.63650487500000 1.39738453750000 7.14621134375000 
 S -3.42396587500000 5.22002953750000 7.57804534375000 
