16

 C -3.22282842187500 1.23169424687500 5.36770817500000 
 C -2.89823642187500 5.26634224687500 5.36906817500000 
 C -4.49930942187500 0.922952246875003 4.77706117500000 
 C -4.09648542187500 4.84137824687500 4.65796117500000 
 N -2.24567942187500 1.15907924687500 4.48932217500000 
 N -1.82383642187500 5.41637524687500 4.59528417500000 
 N -4.42093142187500 0.522391246875002 3.52207217500000 
 N -3.89880842187500 4.67104124687500 3.35329517500000 
 N -4.80980542187500 1.16397624687500 7.31763017500000 
 N -4.63583242187500 4.81656324687500 7.20731517500000 
 S -5.73662842187500 0.890439246875002 5.92522717500000 
 S -5.39560042187500 4.53539424687500 5.76489317500000 
 S -2.81339542187500 0.650351246875003 3.04993617500000 
 S -2.28921542187500 4.95714824687500 3.07154017500000 
 S -3.23638942187500 1.60714324687500 7.02545617500000 
 S -3.13080242187500 5.44272624687500 7.12589717500000 
