16

 C -2.84090075937500 1.47351292500000 5.44103515937500 
 C -3.46986075937500 5.09221892500000 5.21388015937500 
 C -4.05767875937500 1.10070092500000 4.80810115937500 
 C -4.55532875937500 4.40126592500000 4.64636715937500 
 N -1.77688975937500 1.54785092500000 4.64131815937500 
 N -2.35538175937500 5.19205892500000 4.46715115937500 
 N -3.93113675937500 0.864430925000001 3.56562715937500 
 N -4.28535575937500 3.96803192500000 3.40695515937500 
 N -4.76675975937500 1.41372892500000 7.13993015937500 
 N -5.34980375937500 5.15025792500000 7.05108715937500 
 S -5.46219875937500 0.817608925000001 5.72805715937500 
 S -5.84999275937500 4.15796892500000 5.77384115937500 
 S -2.35321075937500 1.17771292500000 3.08368515937500 
 S -2.76737975937500 4.39414592500000 3.04768615937500 
 S -3.14790375937500 1.91111692500000 7.09942415937500 
 S -3.82279275937500 5.86141192500000 6.74328915937500 
