16

 C -3.36073051562500 1.20014327187500 5.48013013437500 
 C -3.23099551562500 5.00285627187500 5.33864013437500 
 C -4.46500651562500 0.655179271875003 4.79354613437500 
 C -4.43657951562500 4.61190327187500 4.61730813437500 
 N -2.30612951562500 1.36705027187500 4.64859113437500 
 N -2.13338651562500 4.99926227187500 4.60727513437500 
 N -4.37415451562500 0.462214271875004 3.48557313437500 
 N -4.17444751562500 4.31811027187500 3.36343013437500 
 N -5.39707751562500 1.13538927187500 7.12750513437500 
 N -4.98300651562500 5.09883027187500 7.16381113437500 
 S -5.87467851562500 0.381164271875003 5.72042413437500 
 S -5.83484351562500 4.81354227187500 5.76236913437500 
 S -2.81769551562500 0.913491271875003 3.08155113437500 
 S -2.54001051562500 4.55906727187500 3.03343913437500 
 S -3.73408951562500 1.51317727187500 7.16822813437500 
 S -3.30567851562500 5.55843827187500 6.92783813437500 
