16

 C -3.59225823437500 1.90446601875000 5.31088952812500 
 C -3.22628923437500 5.01916701875000 5.66010652812500 
 C -4.63200923437500 1.24352001875000 4.59893352812500 
 C -4.49514923437500 4.71964001875000 5.05739252812500 
 N -2.47975323437500 2.07128301875000 4.58592652812500 
 N -2.19268523437500 5.11322001875000 4.87757452812500 
 N -4.34744023437500 0.882032018749999 3.35541952812500 
 N -4.39998123437500 4.60045701875000 3.75472752812500 
 N -5.37185323437500 1.30244501875000 7.09067852812500 
 N -4.98359923437500 5.00851801875000 7.62315152812500 
 S -5.92424123437500 0.775140018749999 5.62997152812500 
 S -5.83692623437500 4.75914401875000 6.16843452812500 
 S -2.80871523437500 1.57834701875000 3.06736152812500 
 S -2.77868423437500 4.84007901875000 3.34241252812500 
 S -3.84944923437500 1.84140801875000 7.09546952812500 
 S -3.33729523437500 5.21311301875000 7.41571852812500 
