16

 C -2.91663507500000 1.48735387500000 5.33238360625000 
 C -3.30960907500000 5.22674487500000 5.46654860625000 
 C -4.25090007500000 1.05286387500000 4.79163960625000 
 C -4.39835007500000 4.67116687500000 4.72743160625000 
 N -2.01091007500000 1.59411087500000 4.36730760625000 
 N -2.26567707500000 5.52440187500000 4.71331260625000 
 N -4.22494707500000 0.884199875000001 3.44881760625000 
 N -4.19978007500000 4.63402687500000 3.40413660625000 
 N -4.57601307500000 1.15187287500000 7.38663360625000 
 N -5.06932607500000 4.70892987500000 7.21967960625000 
 S -5.45126007500000 0.780007875000001 6.03362160625000 
 S -5.76313207500000 4.33574787500000 5.79094560625000 
 S -2.72742207500000 1.27057887500000 2.89757860625000 
 S -2.62703607500000 5.15386087500000 3.16955760625000 
 S -2.99037907500000 1.59519187500000 7.11213560625000 
 S -3.50082607500000 5.21401187500000 7.19465460625000 
