16

 C -3.39395020625000 1.41099167187500 5.41656251250000 
 C -3.15042420625000 4.89876467187500 4.96904251250000 
 C -4.44583920625000 0.644207671875001 4.79978051250000 
 C -4.32395620625000 4.44652167187500 4.27807651250000 
 N -2.43232620625000 1.84552267187500 4.57295151250000 
 N -2.11535820625000 5.16333867187500 4.18816051250000 
 N -4.22175420625000 0.299060671875001 3.52009551250000 
 N -4.25008120625000 4.45496067187500 2.95328951250000 
 N -5.15804220625000 0.782555671875000 7.28569651250000 
 N -4.91114720625000 4.58393467187500 6.85310951250000 
 S -5.78017220625000 0.234769671875001 5.84577351250000 
 S -5.53092120625000 3.90819067187500 5.45894851250000 
 S -2.89597920625000 1.16574567187500 3.09482751250000 
 S -2.65055720625000 4.92096567187500 2.67287951250000 
 S -3.59168420625000 1.43662667187500 7.20343351250000 
 S -3.39132420625000 5.20098067187500 6.65534951250000 
