16

 C -3.03774629062500 1.27154601562500 5.64571435937500 
 C -3.08545329062500 5.11036701562500 5.42171735937500 
 C -4.23316629062500 0.835654015625003 4.96603735937500 
 C -4.18644629062500 4.36658801562500 4.87136435937500 
 N -1.96069929062500 1.37995301562500 4.86608835937500 
 N -2.09416529062500 5.33619201562500 4.56037635937500 
 N -3.99351629062500 0.533468015625003 3.66541535937500 
 N -3.92825729062500 3.77757201562500 3.70550435937500 
 N -4.81232129062500 0.920015015625003 7.51127235937500 
 N -4.83110729062500 5.18097201562500 7.26239035937500 
 S -5.56105829062500 0.632437015625003 6.08511635937500 
 S -5.40847429062500 4.15810101562500 6.12019435937500 
 S -2.40096429062500 1.01812801562500 3.30592935937500 
 S -2.49952529062500 4.46754101562500 3.17085635937500 
 S -3.24730629062500 1.60601601562500 7.36944435937500 
 S -3.35375229062500 5.84577001562500 6.98778235937500 
