16

 C -3.22801692187500 1.09817649375000 5.49132202500000 
 C -2.84240292187500 5.16447949375000 5.47299102500000 
 C -4.52381192187500 0.759909493750000 5.01338302500000 
 C -4.06098092187500 4.93493849375000 4.74793902500000 
 N -2.30468592187500 1.31903649375000 4.55131202500000 
 N -1.74097092187500 5.25952349375000 4.74000602500000 
 N -4.57525492187500 0.508629493750000 3.69827802500000 
 N -3.85194392187500 4.85596749375000 3.46685502500000 
 N -4.82070892187500 1.31454849375000 7.48006702500000 
 N -4.79468492187500 5.03059049375000 7.10699402500000 
 S -5.73568692187500 0.632959493750000 6.25199402500000 
 S -5.47786392187500 4.61902549375000 5.67475402500000 
 S -3.06300192187500 0.888452493750001 3.13737102500000 
 S -2.27223092187500 5.13058749375000 3.13840202500000 
 S -3.15248392187500 1.26516749375000 7.22128202500000 
 S -3.09736192187500 5.07772249375000 7.19754802500000 
