16

 C -3.28233289375000 0.991722396875001 5.48038972500000 
 C -3.29354289375000 5.11353839687500 5.72959472500000 
 C -4.52471889375000 0.730796396875001 4.78738972500000 
 C -4.42476889375000 4.47835839687500 5.10164972500000 
 N -2.21492489375000 1.18616139687500 4.72648472500000 
 N -2.26470589375000 5.29475739687500 4.88799672500000 
 N -4.39400089375000 0.727423396875001 3.46671072500000 
 N -4.30182889375000 4.36310839687500 3.77698372500000 
 N -5.04983289375000 0.602107396875001 7.28943872500000 
 N -4.94391489375000 4.58531839687500 7.64226372500000 
 S -5.83823189375000 0.395256396875001 5.81242372500000 
 S -5.66727389375000 4.20988639687500 6.17847472500000 
 S -2.80689689375000 1.14685239687500 3.17529872500000 
 S -2.77628089375000 4.86370139687500 3.38420972500000 
 S -3.40456489375000 0.861387396875001 7.21259172500000 
 S -3.35740389375000 5.21829139687500 7.46822072500000 
