16

 C -3.06745380937500 1.48559581562500 5.53792787187500 
 C -3.12890780937500 5.02684781562500 5.19991587187500 
 C -4.28959780937500 0.910668815625001 5.01142787187500 
 C -4.37608280937500 4.55318981562500 4.61473987187500 
 N -2.03019280937500 1.46725681562500 4.68472087187500 
 N -2.07271280937500 5.02308681562500 4.40136787187500 
 N -4.11051780937500 0.527771815625001 3.74817987187500 
 N -4.19242180937500 4.01483581562500 3.41136387187500 
 N -4.71419080937500 1.29824981562500 7.61397587187500 
 N -4.90620080937500 5.13712181562500 7.10226387187500 
 S -5.56883180937500 0.795547815625000 6.22836987187500 
 S -5.63969180937500 4.34929281562500 5.86790787187500 
 S -2.56109780937500 0.877952815625000 3.24542387187500 
 S -2.58601780937500 4.25742681562500 3.01975787187500 
 S -3.15438480937500 1.81313181562500 7.22418387187500 
 S -3.30311080937500 5.40381281562500 6.91048287187500 
