16

 C -2.85858549375000 1.72561413750000 5.70560778125000 
 C -3.07412449375000 5.23988813750000 5.71306578125000 
 C -4.15905949375000 1.64762913750000 5.10414678125000 
 C -4.38805449375000 4.97443113750000 5.14297278125000 
 N -1.85825749375000 1.72112913750000 4.80349578125000 
 N -2.09964949375000 5.33044713750000 4.77090378125000 
 N -4.13156649375000 1.59578313750000 3.78209178125000 
 N -4.36824649375000 4.76441813750000 3.83445378125000 
 N -4.60236749375000 1.61042213750000 7.61390878125000 
 N -4.82816749375000 5.25383013750000 7.61817478125000 
 S -5.48008249375000 1.41957513750000 6.24667978125000 
 S -5.68359449375000 4.73961413750000 6.29216778125000 
 S -2.51789149375000 1.74614513750000 3.26233978125000 
 S -2.83749449375000 4.98110113750000 3.32330678125000 
 S -2.98223949375000 1.87040013750000 7.45204578125000 
 S -3.24413549375000 5.60621313750000 7.39132078125000 
