16

 C -3.15495768437500 1.14531021250000 5.53946293750000 
 C -3.33878568437500 4.78035321250000 5.42482493750000 
 C -4.22450868437500 0.558662212499999 4.81000393750000 
 C -4.61229568437500 4.72146821250000 4.79526293750000 
 N -2.15963668437500 1.60126821250000 4.78225793750000 
 N -2.34298768437500 4.88436721250000 4.54037793750000 
 N -4.14053868437500 0.645433212499999 3.49025393750000 
 N -4.59293968437500 4.66204321250000 3.47070793750000 
 N -5.09522568437500 0.655698212499999 7.31556893750000 
 N -5.09928268437500 4.80528521250000 7.26328893750000 
 S -5.63585468437500 6.961321249999930E-002 5.81241093750000 
 S -5.98813568437500 4.51662621250000 5.91222793750000 
 S -2.61416768437500 1.27184321250000 3.16512393750000 
 S -3.01270368437500 4.76747621250000 2.99630593750000 
 S -3.53626368437500 1.18230421250000 7.37334193750000 
 S -3.46145468437500 4.77629521250000 7.12621693750000 
