16

 C -3.01072718437500 1.27371476875000 5.64117302500000 
 C -3.18651118437500 5.33755276875000 5.34374002500000 
 C -4.16456618437500 0.704801768749995 5.01697202500000 
 C -4.16929418437500 4.31949176874999 4.95061702500000 
 N -1.96156218437500 1.49752476874999 4.84625602500000 
 N -2.18873518437500 5.52527076874999 4.51891902500000 
 N -4.04668218437500 0.538999768749995 3.73755602500000 
 N -4.01002318437500 3.90708976874999 3.72014402500000 
 N -4.87926718437500 1.00893476875000 7.44477602500000 
 N -4.93037618437500 5.15448876875000 7.23749702500000 
 S -5.51871718437500 0.407360768749995 6.03305102500000 
 S -5.51414218437500 4.09530376874999 6.05760402500000 
 S -2.42802118437500 0.945600768749995 3.39968802500000 
 S -2.55207218437500 4.52158476874999 3.21065102500000 
 S -3.27401918437500 1.59910576874999 7.31993102500000 
 S -3.48167118437500 5.91131876874999 6.93776902500000 
