16

 C -3.34831414062500 1.55609265000000 5.78058945625000 
 C -3.05541914062500 5.31893965000000 5.84564845625000 
 C -4.54745614062500 1.10311065000000 5.09729845625000 
 C -4.23379414062500 4.79096965000000 5.24739645625000 
 N -2.25485614062500 1.75695465000000 5.10486645625000 
 N -2.02274814062500 5.42307865000000 4.93549045625000 
 N -4.29424514062500 0.995255650000001 3.79635645625000 
 N -4.15297014062500 4.60483565000000 3.93099745625000 
 N -4.96682814062500 1.30182665000000 7.66174845625000 
 N -4.97384914062500 4.93943165000000 7.71981445625000 
 S -5.79754214062500 0.781225650000001 6.32116545625000 
 S -5.52276614062500 4.29028465000000 6.25119945625000 
 S -2.59956914062500 1.26346565000000 3.55178245625000 
 S -2.61994414062500 4.87234965000000 3.44724945625000 
 S -3.43300414062500 1.86014665000000 7.49372545625000 
 S -3.30105514062500 5.48125665000000 7.58959245625000 
