16

 C -2.88065095000000 1.57447599687500 5.83785476250000 
 C -3.33597295000000 5.36069099687500 5.53562476250000 
 C -4.15600395000000 1.39384499687500 5.18649876250000 
 C -4.55073695000000 4.91289099687500 4.90112876250000 
 N -1.88911795000000 1.66554399687500 4.99558576250000 
 N -2.38397295000000 5.65239099687500 4.66652976250000 
 N -4.06325695000000 1.34626699687500 3.86497576250000 
 N -4.55143895000000 4.80932699687500 3.59257076250000 
 N -4.60077595000000 1.43885099687500 7.70541676250000 
 N -5.07045595000000 5.05815099687500 7.42243476250000 
 S -5.45262795000000 1.42161599687500 6.27439276250000 
 S -5.83495995000000 4.68319699687500 6.00526476250000 
 S -2.47478295000000 1.55189199687500 3.42077876250000 
 S -3.05351895000000 5.22599799687500 3.13870076250000 
 S -2.89475495000000 1.56268399687500 7.51103176250000 
 S -3.47081095000000 5.50882899687500 7.25697276250000 
