16

 C -3.26831958437500 1.13311286250000 5.48530908437500 
 C -2.78678658437500 5.07474786250000 5.48648808437500 
 C -4.55197858437500 0.675891862499998 4.96650808437500 
 C -3.98014258437500 4.87555586250000 4.69262708437500 
 N -2.34501358437500 1.19930886250000 4.57542508437500 
 N -1.73142558437500 5.34763086250000 4.73069308437500 
 N -4.55788958437500 0.476351862499998 3.66242608437500 
 N -3.82214858437500 4.85271586250000 3.36074108437500 
 N -4.76502258437500 1.39060586250000 7.41013808437500 
 N -4.76897358437500 5.09766486250000 7.18837108437500 
 S -5.71541758437500 0.606017862499998 6.23215008437500 
 S -5.41480958437500 4.63952386250000 5.69684008437500 
 S -3.00859958437500 0.859049862499998 3.12061608437500 
 S -2.20165058437500 5.15514586250000 3.15542708437500 
 S -3.11374458437500 1.30051386250000 7.19980908437500 
 S -3.11551258437500 5.11616386250000 7.16333108437500 
