16

 C -3.08040576562500 1.64991011250000 5.44119670312500 
 C -2.98866076562500 5.25477511250000 5.48008270312500 
 C -4.33474376562500 1.42021211250000 4.75298270312500 
 C -4.25971676562500 4.96418011250000 4.88456770312500 
 N -2.05994176562500 1.75919511250000 4.58319270312500 
 N -1.99296376562500 5.49347711250000 4.60608970312500 
 N -4.22326976562500 1.13378811250000 3.45920170312500 
 N -4.18448576562500 4.81946311250000 3.55705370312500 
 N -4.88926376562500 1.29872611250000 7.32961370312500 
 N -4.76095176562500 4.95123511250000 7.36589770312500 
 S -5.71541576562500 1.19637711250000 5.85344070312500 
 S -5.60288776562500 4.87697611250000 5.94362070312500 
 S -2.63365876562500 1.48429711250000 3.05611370312500 
 S -2.66047076562500 5.21845011250000 3.11143170312500 
 S -3.25663076562500 1.57815211250000 7.20072770312500 
 S -3.11035776562500 5.18490811250000 7.24618070312500 
