16

 C -2.87701253750000 1.22645574062500 5.54951215000000 
 C -2.88796953750000 5.12886474062500 5.66391615000000 
 C -4.12465453750000 0.882616740624998 4.87412015000000 
 C -4.05307353750000 4.57280574062500 5.03332415000000 
 N -1.89840953750000 1.45898174062500 4.69948115000000 
 N -1.95144153750000 5.47569074062500 4.77734015000000 
 N -4.01023053750000 0.624278740624998 3.58975815000000 
 N -3.97244153750000 4.31471074062500 3.72863715000000 
 N -4.80729053750000 0.991756740624998 7.29337315000000 
 N -4.68068753750000 4.63604974062500 7.47363415000000 
 S -5.52601453750000 0.690156740624998 5.86098515000000 
 S -5.47158453750000 4.34305274062500 6.02566315000000 
 S -2.35816453750000 0.842253740624998 3.21109315000000 
 S -2.47694653750000 4.86214974062500 3.30394715000000 
 S -3.18715053750000 1.30819274062500 7.28977415000000 
 S -3.21024553750000 5.37449874062500 7.35700015000000 
