16

 C -3.18531845000000 1.21558633125000 5.63361925937500 
 C -3.09255945000000 4.95403333125000 5.58219025937500 
 C -4.41112145000000 0.768842331250002 5.07443525937500 
 C -4.30471145000000 4.46549733125000 5.01574825937500 
 N -2.15999545000000 1.32007933125000 4.75394725937500 
 N -2.02619845000000 4.87119333125000 4.74235525937500 
 N -4.37676445000000 0.498518331250002 3.77217225937500 
 N -4.19189345000000 4.17986333125000 3.70247225937500 
 N -4.85130545000000 1.24649833125000 7.65566325937500 
 N -4.83809545000000 4.88194033125000 7.46628825937500 
 S -5.67670545000000 0.858560331250002 6.28816225937500 
 S -5.68628945000000 4.34367033125000 6.16300325937500 
 S -2.82404945000000 0.747951331250002 3.31329325937500 
 S -2.59834245000000 4.39848833125000 3.26455425937500 
 S -3.21321545000000 1.67787733125000 7.35614625937500 
 S -3.26101145000000 5.16157233125000 7.27598025937500 
