16

 C -3.28462702812500 1.58315275312500 5.49462292500000 
 C -3.10378002812500 5.17031075312500 5.71623292500000 
 C -4.56492002812500 1.20234275312500 4.97769192500000 
 C -4.30702802812500 4.74042775312500 5.06477592500000 
 N -2.35991202812500 1.76555175312500 4.56443992500000 
 N -2.11853002812500 5.44779075312500 4.90155592500000 
 N -4.57022202812500 1.09893675312500 3.62068792500000 
 N -4.27646302812500 4.72433275312500 3.74621892500000 
 N -4.78468802812500 1.09615575312500 7.56533892500000 
 N -4.95264302812500 5.03857375312500 7.54732892500000 
 S -5.80625902812500 0.977422753125000 6.21812592500000 
 S -5.63435002812500 4.33778375312500 6.22682492500000 
 S -3.01561902812500 1.42767575312500 3.05592292500000 
 S -2.73473902812500 5.09410075312500 3.34736492500000 
 S -3.27749802812500 1.66433075312500 7.25749092500000 
 S -3.34465202812500 5.41506975312500 7.38329492500000 
