16

 C -3.05811899374999 1.52656679687500 5.73922717187500 
 C -3.25922099374999 4.87932179687500 5.61908317187500 
 C -4.19446599374999 1.18273279687500 4.93751617187500 
 C -4.37735799374999 4.47056979687500 4.77581117187500 
 N -2.01128599374999 1.75363579687500 4.97748017187500 
 N -2.11973199374999 4.97474579687500 4.91775017187500 
 N -3.97833899374999 1.02771579687500 3.60232017187500 
 N -4.07021299374999 4.16372679687500 3.49932717187500 
 N -4.96694599374999 1.07425579687500 7.29768517187500 
 N -5.32156399374999 4.62699079687500 7.26603317187500 
 S -5.64218399374999 1.04389779687500 5.87028117187500 
 S -5.87641999374999 4.34588179687500 5.75710317187500 
 S -2.40244899374999 1.26123379687500 3.44616217187500 
 S -2.46131699374999 4.48668379687500 3.35476317187500 
 S -3.43684199374999 1.61202579687500 7.45595517187500 
 S -3.65167399374999 5.01837279687500 7.27586017187500 
