16

 C -3.18014372812500 1.69424225312500 5.67249874375000 
 C -2.96378472812500 5.12757625312500 5.44984474375000 
 C -4.40495472812500 1.26024625312500 5.05462674375000 
 C -4.23298772812500 4.79288425312500 4.79384174375000 
 N -2.16615672812500 1.79411125312500 4.81136674375000 
 N -1.88608972812500 5.34613325312501 4.65422074375000 
 N -4.40592372812500 1.06603325312500 3.74495874375000 
 N -4.08884072812500 4.77292525312500 3.45598474375000 
 N -5.02863172812500 1.39153625312500 7.48599874375000 
 N -4.65794872812500 5.08527125312500 7.43617574375000 
 S -5.78599772812500 1.05788525312500 6.03883774375000 
 S -5.57133472812500 4.64301125312500 6.02298274375000 
 S -2.84932672812500 1.40490225312501 3.25505074375000 
 S -2.48475472812500 5.07674925312500 3.10738874375000 
 S -3.47711172812500 1.87555325312501 7.42237674375000 
 S -2.95865872812500 5.28285325312500 7.16352874375000 
