16

 C -3.10218550625000 1.45118895312500 5.65429095000000 
 C -2.83487750625000 5.24144595312500 5.42599995000000 
 C -4.35042850625000 1.10801395312500 5.04130995000000 
 C -4.14015750625000 4.84900195312500 4.81866695000000 
 N -2.06221250625000 1.50196695312500 4.79396595000000 
 N -1.91095450625000 5.42720495312500 4.51357495000000 
 N -4.30506850625000 1.02075395312500 3.69485895000000 
 N -4.10396550625000 4.78545195312500 3.50637295000000 
 N -4.77682750625000 1.48553595312500 7.53667795000000 
 N -4.65582450625000 4.99226795312500 7.33645795000000 
 S -5.63244450625000 0.867233953125003 6.30296795000000 
 S -5.45814950625000 4.55702795312500 5.88657895000000 
 S -2.72600550625000 1.40877195312500 3.32764995000000 
 S -2.53982250625000 5.17151295312500 3.02834295000000 
 S -3.14474850625000 1.74360195312500 7.34215195000000 
 S -3.04851750625000 5.44409395312500 7.22977295000000 
