16

 C -3.09718876250000 1.47750109687500 5.55244051562500 
 C -3.31460976250000 5.13976909687500 5.23876051562500 
 C -4.27104076250000 1.06604809687500 4.75157551562500 
 C -4.37622976250000 4.39789409687500 4.61216651562500 
 N -1.93902076250000 1.60950109687500 4.90333951562500 
 N -2.22007376250000 5.18927909687500 4.47974051562500 
 N -3.94079276250000 0.793039096874995 3.48340251562500 
 N -4.15064276250000 3.89313209687499 3.40640351562500 
 N -5.08011376250000 1.21788709687500 7.24757551562500 
 N -5.33838376250000 5.31642009687500 6.80461651562500 
 S -5.73010176250000 0.899399096874996 5.71819551562500 
 S -5.78754076250000 4.30325009687500 5.61058851562500 
 S -2.35848976250000 1.20664509687500 3.36563151562500 
 S -2.56945576250000 4.40712509687500 3.05973351562500 
 S -3.41924576250000 1.64574709687500 7.26670751562500 
 S -3.74128176250000 5.72493809687499 6.85191551562500 
