16

 C -3.07634779687500 1.16376735312500 5.46172695625000 
 C -3.13738079687500 5.50645635312500 5.47688195625000 
 C -4.33772179687500 0.939921353124998 4.82605095625000 
 C -4.22106879687500 4.79017235312500 4.86014695625000 
 N -2.02561979687500 1.27244635312500 4.61877395625000 
 N -2.11439379687500 5.77060435312500 4.67468895625000 
 N -4.28135779687500 0.889202353124998 3.46462895625000 
 N -4.01152279687500 4.38970035312500 3.63234895625000 
 N -4.78352979687500 0.985973353124998 7.40302695625000 
 N -5.07819279687500 5.35327035312500 7.20578995625000 
 S -5.63930379687500 0.817767353124998 6.02808895625000 
 S -5.62454479687500 4.39398035312500 5.87844195625000 
 S -2.67967979687500 0.949284353124998 3.09298295625000 
 S -2.50061779687500 5.04138835312500 3.19265295625000 
 S -3.17599279687500 1.35044435312500 7.19141395625000 
 S -3.52759179687500 5.94588235312500 7.10115395625000 
