16

 C -3.21673837500000 1.60434982500000 5.61734820000000 
 C -2.99826537500000 5.40716382500000 5.50836320000000 
 C -4.35962637500000 1.23541282500000 4.87245520000000 
 C -4.24748737500000 4.97118782500000 4.94613620000000 
 N -2.13715637500000 1.91623182500000 4.88131220000000 
 N -1.96910037500000 5.37691682500000 4.64149620000000 
 N -4.18362637500000 1.32909082500000 3.57528420000000 
 N -4.24609037500000 4.73942182500000 3.64532920000000 
 N -5.04246237500000 0.817190825000004 7.28332720000000 
 N -4.78628737500000 5.20821182500000 7.41562720000000 
 S -5.79615437500000 0.773067825000004 5.72141220000000 
 S -5.55187737500000 4.82697282500000 6.04465820000000 
 S -2.62228237500000 1.72743082500000 3.30427120000000 
 S -2.67672237500000 5.00716082500000 3.18288720000000 
 S -3.39764837500000 1.22675582500000 7.28548520000000 
 S -3.20057437500000 5.42891082500000 7.24669420000000 
