16

 C -2.88764730625000 1.38702211562500 5.79942877500000 
 C -3.16803230625000 4.87290611562500 5.67314677500000 
 C -4.15812130625000 1.19751611562500 5.16453677500000 
 C -4.45980130625000 4.75681411562500 5.00818277500000 
 N -1.86478730625000 1.43264811562500 4.94610077500000 
 N -2.17920230625000 4.85060311562500 4.80149377500000 
 N -4.09872830625000 1.19167711562500 3.82471077500000 
 N -4.38502130625000 4.72934411562500 3.68852277500000 
 N -4.62107830625000 1.46487211562500 7.68987577500000 
 N -5.05901330625000 4.74039011562500 7.47844177500000 
 S -5.52394730625000 1.24667911562500 6.25026577500000 
 S -5.85140830625000 4.52408411562500 6.02362377500000 
 S -2.45021830625000 1.30123211562500 3.44302877500000 
 S -2.80736630625000 4.82951611562500 3.22866177500000 
 S -2.96399330625000 1.58614311562500 7.48704877500000 
 S -3.41642830625000 5.05868511562500 7.43151977500000 
