16

 C -3.37795937812500 1.24924073437500 5.96640913125000 
 C -3.09113037812500 5.04641773437500 5.17828813125000 
 C -4.55454637812500 0.921625734374998 5.16003713125000 
 C -4.34644637812500 4.67472473437500 4.54347013125000 
 N -2.32638937812500 1.51982273437500 5.24437013125000 
 N -2.00269837812500 5.07925473437500 4.42458413125000 
 N -4.35491037812500 0.799859734374998 3.85830513125000 
 N -4.17319237812500 4.60421373437500 3.24085913125000 
 N -5.33181537812500 1.04157773437500 7.62308613125000 
 N -4.90905337812500 4.91271673437500 7.02287213125000 
 S -5.93257837812500 0.432923734374998 6.14411013125000 
 S -5.72719337812500 4.51966373437500 5.58475713125000 
 S -2.76896237812500 1.16513473437500 3.68476813125000 
 S -2.54248537812500 4.70163273437500 2.89656013125000 
 S -3.65722337812500 1.21902173437500 7.76432613125000 
 S -3.28754437812500 5.12602773437500 6.91111313125000 
