16

 C -3.14829576875000 1.05292919687500 5.52910900625000 
 C -3.22594176875000 4.63460219687500 5.67079100625000 
 C -4.33651676875000 0.709758196875002 4.73915600625000 
 C -4.49923376875000 4.47762619687500 5.03234200625000 
 N -2.09765876875000 1.39798919687500 4.77606500625000 
 N -2.25123176875000 4.84920119687500 4.76826600625000 
 N -4.19608076875000 0.788849196875002 3.42273200625000 
 N -4.51783976875000 4.36881419687500 3.69510000625000 
 N -5.12345876875000 0.404718196875002 7.12825800625000 
 N -4.91842776875000 4.79246919687500 7.55866900625000 
 S -5.68253676875000 0.114966196875002 5.59157800625000 
 S -5.78458776875000 4.45722319687500 6.18732100625000 
 S -2.70127676875000 1.33419619687500 3.23773300625000 
 S -2.93596676875000 4.70452519687500 3.28555100625000 
 S -3.48026176875000 0.798378196875002 7.21049200625000 
 S -3.30606476875000 4.98354519687500 7.38107700625000 
