16

 C -3.40877198750000 1.40919651250000 5.43818695312500 
 C -3.14072498750000 4.88734051250000 4.97332995312500 
 C -4.45652198750000 0.646717512500001 4.80425895312500 
 C -4.31163398750000 4.44312751250000 4.29644895312500 
 N -2.45001398750000 1.81427051250000 4.58997695312500 
 N -2.10943298750000 5.15978451250000 4.20111095312500 
 N -4.21741098750000 0.324848512500001 3.52050595312500 
 N -4.24697798750000 4.44797151250000 2.94359095312500 
 N -5.16390098750000 0.785912512500001 7.29413495312500 
 N -4.93612098750000 4.60983651250000 6.84958395312500 
 S -5.77959998750000 0.252910512500002 5.85386095312500 
 S -5.53685498750000 3.92488051250000 5.45939295312500 
 S -2.89331498750000 1.16871251250000 3.08280895312500 
 S -2.66732898750000 4.89842151250000 2.66154195312500 
 S -3.58954898750000 1.43555151250000 7.20096495312500 
 S -3.38443998750000 5.20280251250000 6.66998795312500 
