16

 C -3.19053212187500 1.43035040000000 5.57322684062500 
 C -3.27531712187500 5.28533140000000 5.46779584062500 
 C -4.32296012187500 0.895493400000003 4.82650984062500 
 C -4.33960812187500 4.68159640000000 4.72587184062500 
 N -2.17351212187500 1.65606440000000 4.70641984062500 
 N -2.17798512187500 5.52644540000000 4.76719184062500 
 N -4.19233012187500 0.625676400000003 3.55052784062500 
 N -4.03141012187500 4.42531940000000 3.43991784062500 
 N -5.05173512187500 0.832184400000003 7.25343784062500 
 N -5.14983412187500 5.04326640000000 7.17608884062500 
 S -5.66657012187500 0.424963400000003 5.77817484062500 
 S -5.67763012187500 4.18510940000000 5.85868584062500 
 S -2.71663512187500 1.21015240000000 3.15264484062500 
 S -2.46354612187500 4.94583240000000 3.22752184062500 
 S -3.49692612187500 1.44305040000000 7.33135484062500 
 S -3.58631312187500 5.59238640000000 7.09840984062500 
