16

 C -3.06719149687500 1.48835324375000 5.53287301250000 
 C -3.12486949687500 5.02617224375000 5.19613001250000 
 C -4.27911349687500 0.906600243750000 5.01819601250000 
 C -4.37227749687500 4.54939124375000 4.62542401250000 
 N -2.02571549687500 1.46844724375000 4.68847601250000 
 N -2.06598849687500 5.01820624375000 4.40264201250000 
 N -4.10394449687500 0.523483243749999 3.75261701250000 
 N -4.19510849687500 4.02451324375000 3.41718401250000 
 N -4.71109749687500 1.30185924375000 7.60634701250000 
 N -4.90142349687500 5.13927624375000 7.10067901250000 
 S -5.56950749687500 0.791192243749999 6.22501601250000 
 S -5.64068949687500 4.35345824375000 5.86672501250000 
 S -2.55893749687500 0.874482243749999 3.24996201250000 
 S -2.58852049687500 4.25682724375000 3.02453801250000 
 S -3.14589249687500 1.81492724375000 7.23004401250000 
 S -3.30401249687500 5.40007424375000 6.91409701250000 
