16

 C -2.79970529687500 1.18392319375000 5.46684773750000 
 C -2.98997329687500 5.14116819375000 5.69414573750000 
 C -4.05097429687500 0.832497193749998 4.83417273750000 
 C -4.13858729687500 4.58009219375000 5.00975973750000 
 N -1.77259829687500 1.36789919375000 4.61292973750000 
 N -1.97158729687500 5.43219419375000 4.88160573750000 
 N -4.01405529687500 0.948223193749999 3.49595573750000 
 N -4.02042229687500 4.48922819375000 3.70173873750000 
 N -4.55638729687500 1.28023219375000 7.33430073750000 
 N -4.83345229687500 4.87936219375000 7.45235473750000 
 S -5.42215329687500 0.911839193749999 5.91656373750000 
 S -5.49735729687500 4.23772719375000 6.07017373750000 
 S -2.48872529687500 1.21373719375000 3.10939973750000 
 S -2.47250529687500 4.94733019375000 3.37349673750000 
 S -2.89844729687500 1.55303919375000 7.13386373750000 
 S -3.24320429687500 5.40135619375000 7.32676373750000 
