16

 C -3.50544190000000 1.32919262500000 5.82421514687500 
 C -3.30900490000000 5.16924762500000 5.35665214687500 
 C -4.59864190000000 0.798876624999999 4.95559014687500 
 C -4.51446790000000 4.67180362500000 4.77371814687500 
 N -2.37881990000000 1.61629562500000 5.18890114687500 
 N -2.32090090000000 5.38340862500000 4.49503414687500 
 N -4.23968090000000 0.707660624999999 3.68304214687500 
 N -4.36159790000000 4.34431862500000 3.46606114687500 
 N -5.48003290000000 0.884434624999999 7.35247914687500 
 N -4.87269090000000 4.84071262500000 7.36598214687500 
 S -6.10767890000000 0.564244624999999 5.79229914687500 
 S -5.80200290000000 4.44142762500000 6.00190814687500 
 S -2.69792190000000 1.15726262500000 3.65837214687500 
 S -2.85033990000000 4.84705262500000 3.02671514687500 
 S -3.93500590000000 1.48762062500000 7.41921514687500 
 S -3.29407590000000 5.34422062500000 7.03928314687500 
