16

 C -2.97617016250000 1.75653311875000 5.58289263437500 
 C -3.10432016250000 5.36709611875000 5.60852963437500 
 C -4.10756116250000 1.10069611875000 4.98407963437500 
 C -4.31183916250000 4.86052611875000 5.01403263437500 
 N -1.89243116250000 1.93811411875000 4.81028363437500 
 N -2.09026416250000 5.61344711875000 4.77049263437500 
 N -3.85176216250000 0.625192118749998 3.76790663437500 
 N -4.15565016250000 4.51785411875000 3.72948063437500 
 N -4.77917116250000 1.41172011875000 7.55219063437500 
 N -4.83680016250000 5.32677711875000 7.49636563437500 
 S -5.44493716250000 0.774214118749998 6.17679563437500 
 S -5.70040616250000 4.97268911875000 6.10690663437500 
 S -2.36971016250000 1.14380811875000 3.31856463437500 
 S -2.60927516250000 4.96842911875000 3.32096163437500 
 S -3.27100916250000 2.12325411875000 7.33575863437500 
 S -3.23828516250000 5.66686711875000 7.24146463437500 
