16

 C -3.48920913125000 1.81268829062500 5.60342365625000 
 C -2.86744813125000 5.16334729062500 5.54044065625000 
 C -4.64574513125000 1.24899129062500 4.92585865625000 
 C -4.17648713125000 4.92181229062500 4.94831565625000 
 N -2.41847613125000 2.08083429062500 4.82907865625000 
 N -1.89354913125000 5.22583329062500 4.63307665625000 
 N -4.44984513125000 1.00687829062500 3.62296465625000 
 N -4.25229513125000 4.75672429062500 3.66189165625000 
 N -5.08151913125000 1.31213529062500 7.44382165625000 
 N -4.67031713125000 4.91466729062500 7.48288565625000 
 S -6.00628513125000 1.17174929062500 6.06416765625000 
 S -5.50188913125000 4.86299029062500 6.05223965625000 
 S -2.80139613125000 1.41089229062500 3.34686865625000 
 S -2.72136513125000 4.97305929062500 3.14340065625000 
 S -3.55217413125000 1.83285929062500 7.26843165625000 
 S -3.02000513125000 5.28549429062500 7.30165165625000 
