16

 C -3.39574174375000 1.28451636562500 5.46240224062500 
 C -3.21134074375000 5.35708036562500 5.82376824062500 
 C -4.58934874375000 0.744925365625003 4.82601924062500 
 C -4.34398974375000 4.71590736562500 5.15931824062500 
 N -2.30996574375000 1.54630236562500 4.70194324062500 
 N -2.20158874375000 5.64856536562500 4.98760124062500 
 N -4.37573074375000 0.706311365625003 3.48114624062500 
 N -4.25534474375000 4.77373236562500 3.83994224062500 
 N -5.14750274375000 0.868429365625002 7.34274424062500 
 N -4.86334974375000 4.61542036562500 7.70121924062500 
 S -5.91034674375000 0.387199365625002 5.96156924062500 
 S -5.70191374375000 4.36369036562500 6.25630824062500 
 S -2.85691074375000 1.18862236562500 3.10372024062500 
 S -2.79495474375000 5.40071536562500 3.45825324062500 
 S -3.50857174375000 1.19599436562500 7.17780324062500 
 S -3.36234774375000 5.27437136562500 7.51488924062500 
