16

 C -3.46463754375000 1.33358272812500 5.78397289062500 
 C -3.26360754375000 5.19341472812500 5.36929689062500 
 C -4.53185854375000 0.841218728125000 4.94284589062500 
 C -4.50406754375000 4.65408372812500 4.82075389062500 
 N -2.35607654375000 1.60401272812500 5.11785189062500 
 N -2.28562554375000 5.44211672812500 4.48771889062500 
 N -4.20972454375000 0.696706728125000 3.67121289062500 
 N -4.47167054375000 4.53553572812500 3.48431189062500 
 N -5.44311554375000 0.965687728125000 7.39432689062500 
 N -4.96940454375000 4.87742072812500 7.32067289062500 
 S -5.97815054375000 0.597739728125000 5.90003889062500 
 S -5.80234054375000 4.43603872812500 5.96281789062500 
 S -2.54462054375000 1.16721872812500 3.51281489062500 
 S -2.89465854375000 4.91165272812500 3.01348689062500 
 S -3.90449154375000 1.54198372812500 7.48521189062500 
 S -3.39803554375000 5.30191272812500 7.10891189062500 
