16

 C -3.15467405625000 1.32683092500000 5.38163712187500 
 C -2.86014705625000 5.18685892500000 5.78389412187500 
 C -4.41663905625000 0.888830925000000 4.66944712187500 
 C -4.06772305625000 4.72596492500000 5.13485112187500 
 N -2.07280405625000 1.56026692500000 4.64438512187500 
 N -1.77998905625000 5.26708192500000 5.02178812187500 
 N -4.25287505625000 0.957249924999999 3.34270112187500 
 N -3.95813405625000 4.57753592500000 3.83553912187500 
 N -4.86646905625000 0.828292925000000 7.18417712187500 
 N -4.67429805625000 5.02339792500000 7.57914612187500 
 S -5.63885005625000 0.371754924999999 5.73416112187500 
 S -5.35673505625000 4.31217892500000 6.27000912187500 
 S -2.70682705625000 1.48753392500000 3.09648612187500 
 S -2.34712005625000 4.91696292500000 3.46228912187500 
 S -3.21306905625000 1.21599692500000 7.07526812187500 
 S -3.08324805625000 5.37066492500000 7.46353812187500 
