16

 C -3.23000682187500 1.36013777500000 5.51910007500000 
 C -3.09026282187500 5.31009677500000 5.69915707500000 
 C -4.39447882187500 0.972580774999999 4.75397807500000 
 C -4.32043382187500 5.10226577500000 5.03517907500000 
 N -2.17456282187500 1.71545977500000 4.76075407500000 
 N -1.98650682187500 5.43523377500000 4.94399507500000 
 N -4.20605682187500 0.954980774999999 3.44115007500000 
 N -4.14821782187500 4.88440877500000 3.73022507500000 
 N -5.06152882187500 0.917922774999999 7.21773107500000 
 N -4.95636182187500 5.12731177500000 7.56320407500000 
 S -5.76120582187500 0.473695774999999 5.75809207500000 
 S -5.71590182187500 5.05270677500000 6.08808207500000 
 S -2.65886282187500 1.50144077500000 3.22581307500000 
 S -2.57226182187500 5.19645077500000 3.39566607500000 
 S -3.52636882187500 1.49497877500000 7.19564007500000 
 S -3.34375382187500 5.57678977500000 7.37809607500000 
