16

 C -3.28922461250000 1.30291506875000 5.26195231250000 
 C -3.16676661250000 5.35363906875000 5.57209631250000 
 C -4.52787561250000 0.733905068750001 4.75119431250000 
 C -4.35252961250000 5.09225806875000 4.80492031250000 
 N -2.30238561250000 1.45039206875000 4.36653131250000 
 N -2.07882161250000 5.49012706875000 4.80964431250000 
 N -4.51629361250000 0.610599068750001 3.42532231250000 
 N -4.20439461250000 5.19095906875000 3.46038931250000 
 N -4.97887961250000 1.06311306875000 7.29400531250000 
 N -5.10004061250000 4.99230106875000 7.18364531250000 
 S -5.82603661250000 0.480069068750001 5.91362231250000 
 S -5.77260761250000 5.02397106875000 5.71732731250000 
 S -3.00002161250000 0.907093068750001 2.92026431250000 
 S -2.61739061250000 5.42328906875000 3.20677931250000 
 S -3.45508661250000 1.58307506875000 6.96901531250000 
 S -3.47573161250000 5.15190006875000 7.23177531250000 
