16

 C -3.20850516250000 1.41990187812500 5.37330289375000 
 C -3.30252516250000 5.15530287812500 5.39784889375000 
 C -4.30227216250000 0.719620878125001 4.89404889375000 
 C -4.54513116250000 4.63253887812500 4.84537089375000 
 N -2.18157716250000 1.51416487812500 4.54050489375000 
 N -2.29239416250000 5.14935187812500 4.53990389375000 
 N -4.22211216250000 0.259183878125001 3.64952589375000 
 N -4.46820816250000 4.28416787812500 3.56001189375000 
 N -4.88644016250000 1.28882187812500 7.32294089375000 
 N -4.85529716250000 4.94469387812500 7.40232789375000 
 S -5.55382116250000 0.394040878125001 6.09478189375000 
 S -5.79864016250000 4.76105787812500 6.08977089375000 
 S -2.74765016250000 0.852334878125001 3.13351089375000 
 S -2.90744516250000 4.66580487812500 3.09264989375000 
 S -3.35108916250000 1.92449987812500 7.02283489375000 
 S -3.26894216250000 5.43370687812500 7.10083789375000 
