16

 C -3.26602520625000 1.13434516875000 5.49385458125000 
 C -2.78696720625000 5.06879016875000 5.48383358125000 
 C -4.55903420625000 0.685598168750000 4.97440958125000 
 C -3.99410220625000 4.89939616875000 4.70430458125000 
 N -2.36234220625000 1.20653016875000 4.57566658125000 
 N -1.72615220625000 5.34552516875000 4.72900958125000 
 N -4.55618520625000 0.480267168750000 3.67929558125000 
 N -3.81840920625000 4.85010616875000 3.37266458125000 
 N -4.76304220625000 1.39221416875000 7.40850658125000 
 N -4.77189920625000 5.09778516875000 7.17916858125000 
 S -5.71771820625000 0.603190168750000 6.23197558125000 
 S -5.42046820625000 4.63530916875000 5.69372858125000 
 S -3.01069920625000 0.864598168749999 3.12168758125000 
 S -2.21012120625000 5.15296816875000 3.15866258125000 
 S -3.11325920625000 1.29184216875000 7.20211558125000 
 S -3.11486920625000 5.10902516875000 7.16312658125000 
