16

 C -3.10710022187500 1.37110095937500 5.47702690312500 
 C -3.21462422187500 4.94996995937500 5.59529290312500 
 C -4.36368622187500 0.900725959374998 4.87012590312500 
 C -4.41680522187500 4.60764695937500 4.88379290312500 
 N -2.18635922187500 1.68749895937500 4.57053190312500 
 N -2.23119522187500 5.39745495937500 4.83626990312500 
 N -4.24539822187500 0.685328959374997 3.57952890312500 
 N -4.26504522187500 4.52076195937500 3.57332690312500 
 N -4.78313922187500 1.10775495937500 7.45949990312500 
 N -4.92341922187500 4.84482895937500 7.40516390312500 
 S -5.64252622187500 0.901107959374998 6.07476490312500 
 S -5.69661422187500 4.39458195937500 6.04821390312500 
 S -2.65603022187500 1.04761495937500 3.08282090312500 
 S -2.74313622187500 5.13107095937500 3.22749390312500 
 S -3.19865422187500 1.63388695937500 7.24775190312500 
 S -3.33108022187500 5.07114895937500 7.32123990312500 
