16

 C -3.48641392187500 1.30753649375000 5.82393236875000 
 C -3.30159792187500 5.15766849375000 5.35869636875000 
 C -4.59327892187500 0.806112493750004 4.94847836875000 
 C -4.51240292187500 4.68411449375000 4.77892736875000 
 N -2.37520692187500 1.63311049375000 5.18636536875000 
 N -2.31374592187500 5.40886049375001 4.50053736875000 
 N -4.23276592187500 0.709407493750004 3.66600936875000 
 N -4.36177892187500 4.37550149375000 3.47094836875000 
 N -5.48093092187500 0.894856493750004 7.36918036875000 
 N -4.89326292187500 4.84069449375000 7.35786636875000 
 S -6.09000692187500 0.571558493750004 5.80661736875000 
 S -5.81054292187500 4.44039149375000 6.00727936875000 
 S -2.67880192187500 1.15407849375000 3.64986836875000 
 S -2.85810292187500 4.85172249375000 3.02362936875000 
 S -3.92816292187500 1.50034749375000 7.42246236875000 
 S -3.30740892187500 5.33696449375000 7.04162136875000 
