16

 C -2.76102340312500 1.72911629375000 5.29916522500000 
 C -3.31193240312500 5.00013229375000 5.56359222500000 
 C -3.89231940312500 1.01032429375000 4.75239122500000 
 C -4.54810340312500 4.62659429375000 4.92205122500000 
 N -1.86264340312500 2.04568829375000 4.36551222500000 
 N -2.29753840312500 5.43292929375000 4.77775122500000 
 N -3.87235840312500 0.759289293750001 3.41907122500000 
 N -4.37231040312500 4.57293429375000 3.60888822500000 
 N -4.22643940312500 1.06130729375000 7.34260422500000 
 N -5.07242140312500 4.41021029375000 7.45891922500000 
 S -5.03448740312500 0.568084293750001 6.00145322500000 
 S -5.79671640312500 3.99410629375000 6.01829522500000 
 S -2.42806440312500 1.43085829375000 2.90575322500000 
 S -2.79776440312500 5.04380029375000 3.24234922500000 
 S -2.76058540312500 1.82719129375000 7.11621722500000 
 S -3.49043640312500 4.99495029375000 7.31369222500000 
