16

 C -3.01930797187500 1.83304099375000 5.47647728437500 
 C -3.62696197187500 5.32412399375000 5.51757428437500 
 C -4.12055397187500 1.14177099375000 4.81042028437500 
 C -4.65441197187500 4.46251199375000 4.92369128437500 
 N -2.03060697187500 2.11038499375000 4.66348128437500 
 N -2.60866697187500 5.50819999375000 4.67490828437500 
 N -3.88831597187500 0.920289993750000 3.55428828437500 
 N -4.51041097187500 4.23501099375000 3.61217528437500 
 N -4.66698297187500 0.924296993750001 7.26091128437500 
 N -5.25680297187500 4.66004599375000 7.43616428437500 
 S -5.36637297187500 0.552593993750000 5.79604028437500 
 S -5.92474797187500 3.99388199375000 6.07544628437500 
 S -2.38095997187500 1.48544599375000 3.15618328437500 
 S -3.06611497187500 4.96094499375000 3.20305128437500 
 S -3.28454197187500 1.85234399375000 7.15576228437500 
 S -3.80135897187500 5.49060899375000 7.23421528437500 
