16

 C -3.19256886250000 1.31201914687500 5.35635138750000 
 C -3.17269486250000 4.99814614687500 5.45048538750000 
 C -4.30391986250000 0.562421146875002 4.84625538750000 
 C -4.48690686250000 4.67423814687500 4.94136438750000 
 N -2.22447286250000 1.58800714687500 4.49695038750000 
 N -2.18392986250000 5.05559314687500 4.55215338750000 
 N -4.17936186250000 0.309946146875002 3.55010238750000 
 N -4.44807386250000 4.39248114687500 3.65245738750000 
 N -4.87206086250000 1.24040714687500 7.36624338750000 
 N -4.79502386250000 4.85092214687500 7.48397738750000 
 S -5.56890886250000 0.365802146875002 6.14179838750000 
 S -5.75484886250000 4.67919214687500 6.13220838750000 
 S -2.70234686250000 0.876351146875002 3.03213338750000 
 S -2.91775486250000 4.71144614687500 3.08494338750000 
 S -3.39998386250000 1.89158414687500 7.01196638750000 
 S -3.25859586250000 5.33587214687500 7.11452538750000 
