16

 C -3.24423779062500 1.45259296562500 5.61755105937500 
 C -3.37246379062500 5.26352696562500 5.67604505937500 
 C -4.50897879062500 1.09988396562500 4.99543105937500 
 C -4.54944779062500 4.74391196562500 5.06293505937500 
 N -2.35641879062500 1.81077896562500 4.64888705937500 
 N -2.41719379062500 5.73713496562500 4.83314005937500 
 N -4.57672279062500 1.07857696562500 3.66317605937500 
 N -4.41833279062500 4.50427396562500 3.75246305937500 
 N -4.92684179062500 1.09248296562500 7.55793305937500 
 N -5.07508879062500 4.76715896562500 7.47965805937500 
 S -5.78872579062500 0.864751965625000 6.14550805937500 
 S -5.81616079062500 4.29795096562500 6.08426005937500 
 S -3.00548279062500 1.47699596562500 3.17625105937500 
 S -2.96022179062500 5.17592896562500 3.34100705937500 
 S -3.28690679062500 1.56867396562500 7.39029705937500 
 S -3.56096179062500 5.40005796562500 7.39325605937500 
