16

 C -3.21105992812500 1.36698611562500 5.66406760000000 
 C -3.50414292812500 5.32902211562500 5.40354160000000 
 C -4.36076192812500 0.721078115625002 5.03287860000000 
 C -4.51577292812500 4.51102911562500 4.76788760000000 
 N -2.20492392812500 1.62495711562500 4.84814060000000 
 N -2.46597792812500 5.52015911562500 4.64576960000000 
 N -4.17229892812500 0.507076115625003 3.75382760000000 
 N -4.30323592812500 4.22487811562500 3.50241960000000 
 N -4.82746292812500 0.796783115625002 7.58478860000000 
 N -5.34017192812500 4.97439011562500 7.23241960000000 
 S -5.58721092812500 0.359559115625003 6.13464460000000 
 S -5.82967492812500 4.13606711562500 5.89951660000000 
 S -2.70659592812500 1.16071011562500 3.30683060000000 
 S -2.83510192812500 4.92921711562500 3.09917060000000 
 S -3.38727292812500 1.63449611562500 7.39860960000000 
 S -3.85055592812500 5.71693811562500 7.12519160000000 
