16

 C -3.12970722187500 1.17734249687500 5.39967448750000 
 C -2.79896222187500 5.23273449687500 5.39908148750000 
 C -4.43111822187500 0.737096496875002 4.86992448750000 
 C -4.03477022187500 4.83906149687500 4.73119948750000 
 N -2.15011222187500 1.10382449687500 4.48845948750000 
 N -1.69779622187500 5.35782549687500 4.64898648750000 
 N -4.47747722187500 0.480620496875002 3.56456748750000 
 N -3.86012722187500 4.68532749687500 3.44321448750000 
 N -4.78467022187500 1.02262849687500 7.37345448750000 
 N -4.68663922187500 4.80409849687500 7.16992048750000 
 S -5.72117622187500 0.836416496875001 6.01845248750000 
 S -5.41266322187500 4.63398749687500 5.67109248750000 
 S -2.94048922187500 0.704220496875001 3.05245548750000 
 S -2.28748222187500 5.07543249687500 3.10452648750000 
 S -3.19990222187500 1.61600749687500 7.11765148750000 
 S -3.08269422187500 5.36107049687500 7.11661648750000 
