16

 C -3.24817364375000 1.42101361250000 5.59033906875000 
 C -3.10876664375000 5.18062761250000 5.48639006875000 
 C -4.41384264375000 1.24067961250000 4.83300406875000 
 C -4.31805564375000 4.77151361250000 4.84165506875000 
 N -2.16324764375000 1.81185161250000 4.95714106875000 
 N -2.08407364375000 5.36532561250000 4.66690706875000 
 N -4.23533164375000 1.30072661250000 3.49833106875000 
 N -4.21094564375000 4.75505561250000 3.50371306875000 
 N -5.04968564375000 1.05495861250000 7.35027406875000 
 N -4.78776964375000 5.30954161250000 7.30761806875000 
 S -5.75936864375000 0.836161612500000 5.90517406875000 
 S -5.66130264375000 4.65786861250000 6.00063306875000 
 S -2.62806264375000 1.77207661250000 3.29513306875000 
 S -2.58204864375000 5.06700761250000 3.12949306875000 
 S -3.42413764375000 1.13505361250000 7.32513906875000 
 S -3.10665464375000 5.46070861250000 7.22521806875000 
