16

 C -3.37201276875000 1.27416686562500 5.20581766562500 
 C -3.16124376875000 5.14085086562500 5.33192466562500 
 C -4.58855276875000 0.734062865625001 4.64478666562500 
 C -4.47839276875000 4.71994386562500 4.78135066562500 
 N -2.33609676875000 1.44782386562500 4.39518866562500 
 N -2.21547576875000 5.18343686562500 4.42974266562500 
 N -4.42270376875000 0.456361865625000 3.34782166562500 
 N -4.44780176875000 4.37916286562500 3.48957566562500 
 N -4.94898176875000 0.918195865625000 7.17275866562500 
 N -4.87942776875000 4.76557986562500 7.37785466562500 
 S -5.89738076875000 0.790941865625001 5.79399266562500 
 S -5.77520976875000 4.64095086562500 5.94646066562500 
 S -2.83444976875000 0.750858865625000 2.97693066562500 
 S -2.91667376875000 4.62440586562500 2.96536566562500 
 S -3.40592976875000 1.44183086562500 6.98356566562500 
 S -3.24137576875000 5.38756286562500 7.16182666562500 
