16

 C -3.50409223437500 1.67621820312500 5.35909155312500 
 C -3.26393423437500 4.89265320312500 5.76192255312500 
 C -4.65766623437500 1.12505620312500 4.66867055312500 
 C -4.52525623437500 4.71605620312500 5.11729455312500 
 N -2.53585323437500 2.12878720312500 4.58138655312500 
 N -2.21222423437500 5.07491920312500 4.90092355312500 
 N -4.42343923437500 1.00970920312500 3.34150355312500 
 N -4.39023023437500 4.44182920312500 3.80060955312500 
 N -5.28684523437500 0.964344203124999 7.05058955312500 
 N -5.06876523437500 4.97777820312500 7.62753455312500 
 S -6.04032523437500 0.702754203124999 5.57595655312500 
 S -5.85947523437500 4.68856620312500 6.16610155312500 
 S -2.84605523437500 1.55319420312500 3.05797955312500 
 S -2.87909223437500 4.76972020312500 3.39014855312500 
 S -3.77463923437500 1.74318920312500 7.04165555312500 
 S -3.42747623437500 5.16450020312500 7.48894455312500 
