16

 C -3.29589013750000 1.37418780000000 5.23139926875000 
 C -3.20470613750000 5.05995080000000 5.37501926875000 
 C -4.50937313750000 0.866222800000000 4.68698126875000 
 C -4.43121313750000 4.96470280000000 4.64780226875000 
 N -2.28419513750000 1.54379680000000 4.38582726875000 
 N -2.09892913750000 5.16451980000000 4.64294926875000 
 N -4.43676613750000 0.766467800000000 3.35019326875000 
 N -4.26942813750000 5.25952680000000 3.31005526875000 
 N -4.99682013750000 1.23106380000000 7.23601126875000 
 N -4.92291813750000 4.73136580000000 7.19619226875000 
 S -5.84593413750000 0.616991800000000 5.86809226875000 
 S -5.68809813750000 4.95722180000000 5.81609826875000 
 S -2.89725013750000 1.18766780000000 2.91795926875000 
 S -2.60554013750000 5.37451780000000 3.08691026875000 
 S -3.37464913750000 1.57042580000000 6.99977626875000 
 S -3.31035213750000 5.04303780000000 7.12263726875000 
