16

 C -3.09753020000000 1.63586923750000 5.44888917812500 
 C -3.03511520000000 5.28130723750000 5.51408917812500 
 C -4.34731220000000 1.38147723750000 4.81494417812500 
 C -4.27578320000000 4.94326623750000 4.83089917812500 
 N -2.11007520000000 1.70319023750000 4.57237917812500 
 N -2.04002720000000 5.43008923750000 4.66985317812500 
 N -4.29201620000000 1.22124923750000 3.49790617812500 
 N -4.23348620000000 4.82381123750000 3.51853417812500 
 N -4.90965720000000 1.31115123750000 7.30610717812500 
 N -4.73411820000000 4.94888823750000 7.42087417812500 
 S -5.68259020000000 1.24503323750000 5.83684717812500 
 S -5.59562120000000 4.80736423750000 5.93951217812500 
 S -2.64925120000000 1.52733223750000 2.99554717812500 
 S -2.63501220000000 5.26427023750000 3.12103217812500 
 S -3.29458520000000 1.57299823750000 7.21087017812500 
 S -3.05976520000000 5.12737323750000 7.22720817812500 
