16

 C -3.04477726874999 0.919501140624997 5.48171285312500 
 C -3.00891926874999 4.99828814062500 5.52382885312500 
 C -4.24335826874999 0.580159140624997 4.70872785312500 
 C -4.27989426874999 4.78465414062500 4.92503585312500 
 N -1.93962426874999 1.10816714062500 4.76488985312500 
 N -1.97649526874999 4.94828714062500 4.65208385312500 
 N -4.07768426874999 0.530109140624997 3.39970485312500 
 N -4.29961126874999 4.50836514062500 3.59295885312500 
 N -4.98545826874999 0.972307140624997 7.22627185312500 
 N -4.89294126874999 5.07681914062500 7.40640885312500 
 S -5.64385226874999 0.437407140624997 5.75426385312500 
 S -5.64713926874999 4.89674214062500 5.91715185312500 
 S -2.39148026874999 0.817371140624997 3.18582585312500 
 S -2.70247926874999 4.65451514062500 3.17926485312500 
 S -3.36200626874999 1.32111514062500 7.15466085312500 
 S -3.21288126874999 5.27012014062500 7.27624085312500 
