16

 C -3.10136858437500 1.50282572187500 5.74517129687500 
 C -3.02994158437500 4.64925172187501 5.48052729687500 
 C -4.31048858437500 1.15723372187500 5.12451929687500 
 C -4.27189358437500 4.27426272187500 4.86346729687500 
 N -2.10554358437500 1.68303272187500 4.92686929687500 
 N -1.98604958437500 4.74615072187500 4.66666829687500 
 N -4.18740758437500 0.905438721875005 3.83117829687500 
 N -4.19025258437500 4.02732072187501 3.55721729687500 
 N -4.77342658437500 1.47779172187500 7.56188629687500 
 N -4.88433958437500 4.50238672187501 7.36680529687500 
 S -5.67815358437500 1.17647572187501 6.19509429687500 
 S -5.67182258437500 4.17233072187500 5.92518229687500 
 S -2.61667358437500 1.20674472187500 3.37289029687500 
 S -2.63636158437500 4.36168072187501 3.10076029687500 
 S -3.15243958437500 1.72282772187500 7.42546929687500 
 S -3.25153258437500 4.62994472187500 7.27341529687500 
