16

 C -3.10851141562501 1.52258651875000 5.70919335312500 
 C -3.18864041562501 4.88880151875000 5.60164635312500 
 C -4.27106941562501 1.18668351875000 4.92862935312500 
 C -4.33954241562501 4.45747551875000 4.85849235312500 
 N -1.97062441562501 1.72785351875000 4.99607535312500 
 N -2.07840641562501 4.95088351875000 4.87837135312500 
 N -3.94144941562501 1.00913851875000 3.63261135312500 
 N -4.02949841562500 4.14317651875000 3.59283435312500 
 N -4.93525541562501 1.09395851875000 7.36049135312500 
 N -5.29792041562501 4.61186151875000 7.21518835312500 
 S -5.66354441562501 1.07699051875000 5.88227135312500 
 S -5.85937141562501 4.37544251875000 5.70371935312500 
 S -2.33247741562501 1.29623951875000 3.48042935312500 
 S -2.45250641562501 4.42416851875000 3.33799535312500 
 S -3.38154041562501 1.61198251875000 7.42977735312500 
 S -3.65937741562501 5.00596451875000 7.29094835312500 
