16

 C -3.35700096562500 1.23854843125000 5.46022519687500 
 C -3.12410396562500 4.95234443125000 5.04625819687500 
 C -4.54440896562500 0.658411431249999 4.78774219687500 
 C -4.30554396562500 4.40166443125000 4.46848719687500 
 N -2.35599896562500 1.64076143125000 4.66185019687500 
 N -2.15664396562500 5.13528043125000 4.15261919687500 
 N -4.43604996562500 0.580517431249999 3.45360619687500 
 N -4.25194596562500 4.22150443125000 3.12817819687500 
 N -5.12530896562500 0.915626431249999 7.30707619687500 
 N -4.95180096562500 4.83491243125000 6.84067619687500 
 S -5.87644996562500 0.414071431249999 5.91922019687500 
 S -5.70138096562500 4.12231843125000 5.48509419687500 
 S -2.86372496562500 1.20659643125000 3.18467819687500 
 S -2.70767596562500 4.76527143125000 2.66821119687500 
 S -3.58044696562500 1.45746443125000 7.18306419687500 
 S -3.35871496562500 5.21347943125000 6.79114019687500 
