16

 C -3.26515240625000 1.38642714687500 5.53341890000000 
 C -3.30444340625000 5.09471914687500 5.44861290000000 
 C -4.54125640625000 1.09045114687500 4.87135990000000 
 C -4.52210040625000 4.59842514687500 4.84755390000000 
 N -2.21249840625000 1.54735314687500 4.69884890000000 
 N -2.30796340625000 5.32049014687500 4.61581690000000 
 N -4.44758640625000 0.906998146875002 3.52770690000000 
 N -4.47163940625000 4.50407314687500 3.52640290000000 
 N -5.02621440625000 1.19627214687500 7.47587890000000 
 N -4.98974340625000 4.86156714687500 7.37847090000000 
 S -5.82397740625000 0.747039146875002 6.06051190000000 
 S -5.77787340625000 4.39566514687500 5.97165990000000 
 S -2.84997540625000 1.20021414687500 3.17576790000000 
 S -2.90513040625000 4.90999514687500 3.10059290000000 
 S -3.39496140625000 1.45756814687500 7.30504990000000 
 S -3.38734540625000 5.13013414687500 7.21562790000000 
