16

 C -3.32919202500000 0.924400621875000 5.44414188437500 
 C -3.14575602500000 4.82418962187500 5.59715388437500 
 C -4.55006402500000 0.762644621874999 4.77522788437500 
 C -4.43499302500000 4.54235362187500 4.98193988437500 
 N -2.30125202500000 1.10868962187500 4.62749688437500 
 N -2.16180302500000 5.05257362187500 4.75911788437500 
 N -4.46006702500000 0.826633621875000 3.43958588437500 
 N -4.41061102500001 4.45965062187500 3.65041188437500 
 N -4.92345102500000 0.543073621875000 7.32017588437500 
 N -4.98360302500000 4.68458162187500 7.49582988437500 
 S -5.77647702500000 0.291948621875000 5.92516388437500 
 S -5.76002302500000 4.52330762187500 6.04066588437500 
 S -2.87992102500000 1.00875862187500 3.06818588437500 
 S -2.91433902500000 4.78698962187500 3.21895688437500 
 S -3.30546002500000 0.818708621874999 7.13786488437500 
 S -3.33557002500000 4.69445062187500 7.36152588437500 
