16

 C -2.90615850937500 1.73572895937500 5.42982982500000 
 C -3.22128950937500 5.12188595937500 5.62484782500000 
 C -4.19952750937500 1.27627295937500 4.87452982500000 
 C -4.43166750937500 4.61276695937500 5.01403582500000 
 N -1.89547450937500 1.83275295937500 4.57494082500000 
 N -2.16257550937500 5.27805595937500 4.83725382500000 
 N -4.18050350937500 1.11433395937500 3.54035382500000 
 N -4.32436150937500 4.52987195937500 3.70058482500000 
 N -4.51698650937500 1.86471195937500 7.38321082500000 
 N -4.94994050937500 4.88813395937500 7.58305982500000 
 S -5.44573750937500 1.32136795937500 6.08009282500000 
 S -5.78792450937500 4.55588495937500 6.13285082500000 
 S -2.61721650937500 1.49883195937500 3.10230982500000 
 S -2.74577750937500 5.00284195937500 3.30644482500000 
 S -2.82999850937500 1.99915495937500 7.15873782500000 
 S -3.32869650937500 5.23950395937500 7.32346982500000 
