16

 C -3.15070575000000 1.27533319062500 5.51889720937500 
 C -3.28405575000000 5.04493819062500 5.48261320937500 
 C -4.40791975000000 1.08563219062500 4.86108820937500 
 C -4.52229475000000 4.67068719062500 4.82424420937500 
 N -2.07828575000000 1.23584019062500 4.70096420937500 
 N -2.21767775000000 4.96493219062500 4.66532720937500 
 N -4.31764875000000 0.862688190624996 3.54823620937500 
 N -4.37292675000000 4.42223919062500 3.52554520937500 
 N -5.00495275000000 1.38686619062500 7.37250720937500 
 N -5.00358875000000 5.10805319062499 7.32446420937500 
 S -5.73638375000000 1.46339619062500 5.89651520937500 
 S -5.81849475000000 4.46082419062500 5.98352620937500 
 S -2.64765575000000 0.973765190624996 3.20857720937500 
 S -2.71962275000000 4.50387919062500 3.17367920937500 
 S -3.32209275000000 1.42902219062500 7.29110820937500 
 S -3.41623375000000 5.58200519062500 7.11062620937500 
