16

 C -2.97784066250000 1.41216910312500 5.39310166875000 
 C -3.23777266250000 5.22687710312500 5.97710066875000 
 C -4.14495066250000 0.962282103124998 4.74511266875000 
 C -4.45453266250000 4.87228010312500 5.22241966875000 
 N -1.97143066250000 1.63924610312500 4.55252666875000 
 N -2.14542766250000 5.41835810312500 5.29467766875000 
 N -4.07559266250000 0.863234103124999 3.41555466875000 
 N -4.17802766250000 4.78692710312500 3.90259466875000 
 N -4.85764966250000 1.20783210312500 7.19092166875000 
 N -5.02425966250000 5.04214310312500 7.75804866875000 
 S -5.51815766250000 0.673992103124998 5.74154066875000 
 S -5.82045166250000 4.82831710312500 6.30745566875000 
 S -2.53025066250000 1.25940410312500 2.95344366875000 
 S -2.60545766250000 5.13777310312500 3.68222166875000 
 S -3.24425166250000 1.72769010312500 7.09066066875000 
 S -3.45468566250000 5.53875910312500 7.63655266875000 
