16

 C -2.83814759375001 1.62843074687500 5.75081629062500 
 C -3.29283759375001 5.35117774687500 5.44135429062500 
 C -4.13815359375001 1.47900974687500 5.10408229062500 
 C -4.53496659375001 4.89141174687500 4.88398429062500 
 N -1.81732659375001 1.77152974687500 4.90233629062500 
 N -2.34859759375001 5.56102274687500 4.53043229062500 
 N -4.11491859375001 1.35746274687500 3.75520729062500 
 N -4.55588959375001 4.85287474687500 3.56777629062500 
 N -4.62190559375001 1.56245774687500 7.67638629062500 
 N -5.01879759375001 5.08570674687500 7.38295329062500 
 S -5.50197659375001 1.43694574687500 6.28431329062500 
 S -5.82716759375001 4.55799774687500 6.00427729062500 
 S -2.50249759375001 1.64424774687500 3.39476129062500 
 S -3.03422659375001 5.31336074687500 3.07825729062500 
 S -2.96833859375001 1.61576774687500 7.57230029062500 
 S -3.46034459375001 5.66704074687500 7.19243329062500 
