16

 C -2.86868571875000 1.18462200625000 5.59534770000000 
 C -3.03169471875000 5.16393000625000 5.50515270000000 
 C -4.08738971875000 0.970777006250000 4.88729770000000 
 C -4.26373571875000 4.82036300625000 4.82025170000000 
 N -1.77036371875000 1.14434400625000 4.77133670000000 
 N -1.88152771875000 5.23008800625000 4.82088570000000 
 N -3.99510771875000 0.818734006250001 3.54789370000000 
 N -4.05283071875000 4.67499200625000 3.51331270000000 
 N -4.97798171875000 1.31437200625000 7.24903670000000 
 N -4.79899271875000 5.29107600625000 7.38951870000000 
 S -5.53147771875000 0.864034006250000 5.74846070000000 
 S -5.60583471875000 4.84411500625000 6.05581070000000 
 S -2.43506171875000 0.968767006250001 3.24002270000000 
 S -2.39784271875000 4.90903800625000 3.31498470000000 
 S -3.30383071875000 1.60944700625000 7.29412270000000 
 S -3.17852671875000 5.45362000625000 7.17846770000000 
