16

 C -3.18399920937500 1.54584662187500 5.45864801562500 
 C -3.18318020937500 5.23241162187500 5.94237001562500 
 C -4.37201020937500 1.07499862187500 4.83253401562500 
 C -4.48101920937500 4.99231162187500 5.27887101562500 
 N -2.20606920937500 1.88983762187500 4.60872101562500 
 N -2.13660620937500 5.31298562187500 5.15119701562500 
 N -4.30881020937500 1.05365462187500 3.52756801562500 
 N -4.28347420937500 4.86257062187500 3.98852201562500 
 N -5.00360420937500 0.971980621875002 7.26660101562500 
 N -4.78520520937500 5.10964162187500 7.85577401562500 
 S -5.69656620937500 0.699958621875002 5.80963001562500 
 S -5.80241620937500 4.98528662187500 6.51547501562500 
 S -2.78784720937500 1.41069862187500 3.06680201562500 
 S -2.70863820937500 5.04915262187500 3.59403701562500 
 S -3.41244420937500 1.46435862187500 7.24607901562500 
 S -3.17352020937500 5.38723662187500 7.61735501562500 
