16

 C -3.37341819375000 1.05521853750000 5.62926278750000 
 C -2.97869719375000 5.12318553750000 5.51606078750000 
 C -4.59597719375000 0.617078537500003 4.91922778750000 
 C -4.15799519375000 4.60192453750000 4.88097478750000 
 N -2.29439319375000 1.21441353750000 4.84713578750000 
 N -1.93307719375000 5.15246553750000 4.69427478750000 
 N -4.38429519375000 0.406981537500003 3.60840578750000 
 N -4.02956119375000 4.34231653750000 3.57908078750000 
 N -5.26120419375000 0.796293537500003 7.32389378750000 
 N -4.70490819375000 4.79920653750000 7.38056278750000 
 S -5.93510619375000 0.240690537500003 5.93248578750000 
 S -5.43604019375000 4.32912453750000 5.98048878750000 
 S -2.88544919375000 0.879707537500003 3.33203078750000 
 S -2.47140419375000 4.74251953750000 3.17513078750000 
 S -3.64503019375000 1.23989553750000 7.33424578750000 
 S -3.14581519375000 5.36830553750000 7.27466878750000 
