16

 C -3.02200349062500 1.53570865625000 5.42692022812500 
 C -3.15285049062500 5.10756465625000 5.40701122812500 
 C -4.26746249062500 1.18666465625000 4.63566322812500 
 C -4.31797349062500 4.48441165625000 4.86759522812500 
 N -1.90141649062500 1.59249865625000 4.72411322812500 
 N -2.21993749062500 5.31645265625000 4.49581122812500 
 N -3.92959749062500 0.891148656249999 3.37881322812500 
 N -4.24313049062500 4.15586865625000 3.57265622812500 
 N -4.90841249062500 1.25672865625000 7.14382422812500 
 N -4.77670249062500 4.82000665625000 7.38071822812500 
 S -5.62342949062500 0.983208656249999 5.64874722812500 
 S -5.57882149062500 4.31307165625000 6.01007822812500 
 S -2.35076349062500 1.17566665625000 3.17269322812500 
 S -2.74263849062500 4.63619565625000 3.05195522812500 
 S -3.28093349062500 1.73973565625000 7.10189122812500 
 S -3.21943449062500 5.38013465625000 7.18900022812500 
