16

 C -3.26447925937500 1.36887148437500 5.49337455000000 
 C -3.04687525937500 5.29786148437500 5.71855855000000 
 C -4.37938425937500 0.953617484375003 4.75386355000000 
 C -4.30260625937500 5.12560148437500 5.04124255000000 
 N -2.21255925937500 1.67175548437500 4.73420255000000 
 N -1.97977625937500 5.46007048437500 4.94248655000000 
 N -4.21773425937500 0.892379484375003 3.43349455000000 
 N -4.15033925937500 4.90453148437500 3.73592155000000 
 N -5.07488225937500 0.987042484375003 7.22259955000000 
 N -5.01269625937500 5.14679748437500 7.56858055000000 
 S -5.73335325937500 0.453064484375003 5.75144255000000 
 S -5.74731425937500 5.05173848437500 6.06586555000000 
 S -2.67729525937500 1.47100648437500 3.22127855000000 
 S -2.56635025937500 5.21368648437500 3.39325855000000 
 S -3.53390325937500 1.48770148437500 7.19406755000000 
 S -3.35657325937500 5.57843648437500 7.41024255000000 
