16

 C -3.40285523125000 1.16563413125000 5.82823599062500 
 C -3.19441723125000 4.96662913125000 5.23613199062500 
 C -4.57611723125000 0.865195131250001 5.04619799062500 
 C -4.41503923125000 4.56085113125000 4.57473399062500 
 N -2.33776423125000 1.43044913125000 5.08914299062500 
 N -2.20248023125000 5.24506813125000 4.41675099062500 
 N -4.42923123125000 0.815906131250001 3.72608899062500 
 N -4.28283023125000 4.40058613125000 3.27313099062500 
 N -5.24751123125000 0.835919131250001 7.53680199062500 
 N -5.05368323125000 4.81314813125000 7.03372399062500 
 S -6.01187423125000 0.727354131250001 6.05473599062500 
 S -5.81789623125000 4.49458413125000 5.62053299062500 
 S -2.81131323125000 1.24357013125000 3.51432699062500 
 S -2.72173523125000 4.82658713125000 2.87320599062500 
 S -3.66814623125000 1.46610813125000 7.52345299062500 
 S -3.46450723125000 5.38257513125000 6.86597899062500 
