16

 C -3.03601860312500 1.26351885312500 5.54658441875000 
 C -3.21322360312500 5.06342285312500 5.46316641875000 
 C -4.31382060312500 1.07956285312500 4.84898041875000 
 C -4.46061960312500 4.64612085312500 4.86850541875000 
 N -1.98498860312500 1.29029785312500 4.70393041875000 
 N -2.14772160312500 5.00906285312500 4.69985241875000 
 N -4.25286760312500 0.912030853125000 3.52041441875000 
 N -4.36452260312500 4.36815085312500 3.56280641875000 
 N -4.92832160312500 1.44451585312500 7.33866741875000 
 N -5.05058160312500 5.14675885312500 7.31082641875000 
 S -5.70114760312500 1.52307385312500 5.88942341875000 
 S -5.80697160312500 4.51592685312500 6.02498141875000 
 S -2.64749360312500 1.00296085312500 3.16777441875000 
 S -2.71764660312500 4.59032185312500 3.22659741875000 
 S -3.26797160312500 1.48767185312500 7.29470341875000 
 S -3.42247660312500 5.52857085312500 7.13026141875000 
