16

 C -3.35085794687500 1.51397303125000 5.47769104687500 
 C -3.06745194687500 5.28728403125000 5.63994404687500 
 C -4.47348894687500 1.02981003125000 4.75278004687500 
 C -4.34684194687500 5.05342003125000 5.04906504687500 
 N -2.30093194687500 1.67425703125000 4.75292604687500 
 N -2.06205094687500 5.53512703125000 4.73981004687500 
 N -4.30104594687500 0.766475031249999 3.47816404687500 
 N -4.26871194687500 4.89652703125000 3.72518304687500 
 N -5.34631194687500 1.46560203125000 7.11634604687500 
 N -4.88134294687500 5.07819703125000 7.57991804687500 
 S -5.86845894687500 0.731670031249999 5.73565504687500 
 S -5.63519394687500 4.63967103125000 6.15840104687500 
 S -2.78042394687500 1.43431003125000 3.14905104687500 
 S -2.78160794687500 5.26064003125000 3.23478204687500 
 S -3.80202194687500 2.03095703125000 7.06754404687500 
 S -3.22012994687500 5.49623203125000 7.38374804687500 
