16

 C -3.00290198125000 1.42412081875000 5.43369756250000 
 C -3.34812098125000 5.49381581875000 5.33899056250000 
 C -4.23902798125000 1.05805181875000 4.85454956250000 
 C -4.27104898125000 4.54746481875000 4.78154356250000 
 N -2.01422998125000 1.34332881875000 4.60759856250000 
 N -2.29332198125000 5.69044781875000 4.60120356250000 
 N -4.20234098125000 0.707627818749999 3.57170056250000 
 N -4.00675298125000 4.17323481875000 3.52841256250000 
 N -4.69625698125000 0.932540818750000 7.31462556250000 
 N -5.14080998125000 5.38694381875000 7.09953056250000 
 S -5.56943398125000 0.935646818750000 5.88498656250000 
 S -5.64768698125000 4.44823181875000 5.88814856250000 
 S -2.62030898125000 1.01416281875000 3.05549956250000 
 S -2.55769298125000 4.84207381875000 3.17654956250000 
 S -3.06878498125000 1.35705481875000 7.18099156250000 
 S -3.56834698125000 5.90825081875000 7.02293356250000 
