16

 C -2.82892022187500 1.47219898437500 5.45009658125000 
 C -3.45708722187500 5.08728398437500 5.22209658125000 
 C -4.05853822187500 1.10741098437500 4.79231958125000 
 C -4.55544322187500 4.42005398437500 4.64216158125000 
 N -1.77537622187500 1.53267898437500 4.62978058125000 
 N -2.36318622187500 5.19947898437500 4.46159558125000 
 N -3.93089522187500 0.851094984374999 3.55168458125000 
 N -4.28032822187500 3.95842098437500 3.41204158125000 
 N -4.76069722187500 1.40956698437500 7.14727458125000 
 N -5.35010122187500 5.14998598437500 7.06113858125000 
 S -5.47481622187500 0.823058984375000 5.73285058125000 
 S -5.83334722187500 4.17127698437500 5.77276058125000 
 S -2.35546222187500 1.18591198437500 3.08270358125000 
 S -2.76638922187500 4.39813698437500 3.05531858125000 
 S -3.14202422187500 1.89592198437500 7.10841358125000 
 S -3.82005822187500 5.87405098437500 6.75107058125000 
