16

 C -2.80471529062500 1.82657734375000 5.48236186875000 
 C -3.13664429062500 5.22934534375000 5.67322186875000 
 C -4.08168729062500 1.45213034375000 4.97169486875000 
 C -4.37438729062500 4.72052534375000 5.10788186875000 
 N -1.81689329062500 1.99088334375000 4.56966586875000 
 N -2.16343829062500 5.38454234375000 4.74538186875000 
 N -4.12726829062500 1.17279734375000 3.67530386875000 
 N -4.35373329062500 4.52147434375000 3.78850586875000 
 N -4.52567729062500 1.53740834375000 7.56963586875000 
 N -4.93500729062500 5.06271034375000 7.57767686875000 
 S -5.39513529062500 1.52159534375000 6.15052886875000 
 S -5.74215129062500 4.67030334375000 6.14673186875000 
 S -2.59531329062500 1.54603534375000 3.11378586875000 
 S -2.79770129062500 4.90137534375000 3.30883386875000 
 S -2.90711729062500 1.96298634375000 7.27721786875000 
 S -3.29330629062500 5.30507834375000 7.47029586875000 
