16

 C -3.08809502500000 1.40659638437500 5.48576487812500 
 C -3.40683502500000 5.20375338437500 5.12432487812500 
 C -4.22128802500000 0.889460384375000 4.83208887812500 
 C -4.43264802500000 4.37114838437500 4.53413887812500 
 N -2.00207602500000 1.53413238437500 4.75038687812500 
 N -2.29482302500000 5.37739238437500 4.40283687812500 
 N -4.02690602500000 0.683501384375000 3.53399387812500 
 N -4.04461602500000 3.92385838437500 3.33349787812500 
 N -4.83336402500000 1.10713138437500 7.28491087812500 
 N -5.18995902500000 4.96829638437500 7.00830087812500 
 S -5.61979802500000 0.713892384375000 5.91620987812500 
 S -5.73569302500000 4.11189438437500 5.69778787812500 
 S -2.50578302500000 1.14568238437500 3.19139487812500 
 S -2.60131502500000 4.58283338437500 2.98676087812500 
 S -3.29371802500000 1.75124938437500 7.21420487812500 
 S -3.75562102500000 5.81912238437500 6.73380287812500 
