16

 C -2.87842870000000 1.82648060000000 5.61570215000000 
 C -3.21290970000000 5.24840760000000 5.65085815000000 
 C -4.20451070000000 1.66107360000000 5.01141715000000 
 C -4.47048470000000 4.92368460000000 5.04904215000000 
 N -1.88009570000000 1.90144360000000 4.75875115000000 
 N -2.17655070000000 5.33303460000000 4.82915315000000 
 N -4.16373070000000 1.45615960000000 3.68667315000000 
 N -4.36234270000000 4.61732860000000 3.75137615000000 
 N -4.46020470000000 1.43960560000000 7.52281215000000 
 N -4.82711170000000 5.17732760000000 7.61432615000000 
 S -5.41677070000000 1.49793460000000 6.18078815000000 
 S -5.69085570000000 4.70215360000000 6.30065015000000 
 S -2.53292870000000 1.58201260000000 3.29424515000000 
 S -2.74810370000000 4.92851960000000 3.37243915000000 
 S -2.86410570000000 1.94764360000000 7.33528715000000 
 S -3.25242670000000 5.47457260000000 7.38685915000000 
