16

 C -3.12165115625000 1.53527567812499 5.65855215625000 
 C -2.91390315625000 5.15287867812500 5.43768615625000 
 C -4.39646115625000 1.17063867812499 5.03991915625000 
 C -4.17253715625000 4.83448067812500 4.82748215625000 
 N -2.12817115625000 1.71901367812499 4.77775015625000 
 N -1.91804915625000 5.35831767812500 4.59866915625000 
 N -4.37169915625000 1.17092967812500 3.70948615625000 
 N -4.10023815625000 4.77260367812499 3.49193515625000 
 N -5.01639615625000 1.47990367812499 7.50580115625000 
 N -4.63056915625000 5.14071267812499 7.33409315625000 
 S -5.72719715625000 0.986293678124994 6.11338115625000 
 S -5.50707015625000 4.59488267812499 5.98882815625000 
 S -2.81464515625000 1.40706767812500 3.30534315625000 
 S -2.48489815625000 5.10194167812499 3.11606915625000 
 S -3.40369015625000 1.86338067812500 7.40526715625000 
 S -3.03315215625000 5.29117867812499 7.15381715625000 
