16

 C -3.10713766562500 1.49607343125001 5.34475702187500 
 C -3.00131166562500 5.22221243125001 5.71012502187500 
 C -4.33174666562500 1.06560543125001 4.75953102187500 
 C -4.22664566562500 4.76204643125001 5.10612702187500 
 N -1.98395166562500 1.39952843125001 4.65072702187500 
 N -2.00243266562500 5.37298943125001 4.85935402187500 
 N -4.09679966562500 0.559625431250008 3.54604602187500 
 N -4.15153466562500 4.56338043125001 3.79739902187500 
 N -4.74405266562500 1.36196643125001 7.27388802187500 
 N -4.85978266562500 4.83224643125001 7.58239202187500 
 S -5.67307966562500 1.12738343125001 5.93724502187500 
 S -5.59290066562500 4.78399043125001 6.06771102187500 
 S -2.47491966562500 0.775738431250007 3.14384302187500 
 S -2.64664166562500 4.93280543125001 3.31638002187500 
 S -3.13686566562500 1.61886343125001 7.06635702187500 
 S -3.29207566562500 5.37679543125001 7.41570302187500 
