16

 C -3.48976619062500 1.78183935937500 5.58827164687500 
 C -2.95044319062500 5.16127335937500 5.57481664687500 
 C -4.67320619062500 1.30983935937500 4.90712864687500 
 C -4.25466919062500 4.94787335937500 5.02999364687500 
 N -2.43749619062500 1.99303735937500 4.75422264687500 
 N -2.01109419062500 5.21907835937500 4.64875964687500 
 N -4.45326919062500 1.04013635937500 3.60613964687500 
 N -4.28134919062500 4.84799635937500 3.74287064687500 
 N -5.21770019062500 1.40253635937500 7.46992564687500 
 N -4.63549119062500 5.03325235937500 7.55811464687500 
 S -6.00043019062500 1.10513535937500 6.00926264687500 
 S -5.59317719062500 4.92432035937500 6.16584064687500 
 S -2.88913619062500 1.45053835937500 3.29589064687500 
 S -2.70032719062500 4.93636735937500 3.17764264687500 
 S -3.58993219062500 1.79692835937500 7.28440564687500 
 S -2.96939019062500 5.28405335937500 7.34084364687500 
