16

 C -3.23469105937500 0.965284309374996 5.40315833437500 
 C -3.13016305937500 4.56758330937500 5.55641133437500 
 C -4.42796005937500 0.529512309374996 4.78883033437500 
 C -4.41896905937500 4.71821730937500 4.93208333437500 
 N -2.25256505937500 1.33169730937500 4.61714433437500 
 N -2.15291605937500 4.39386030937500 4.67902433437500 
 N -4.27471105937500 0.537392309374996 3.46129233437500 
 N -4.41961605937500 4.74386430937500 3.62730433437500 
 N -4.82974305937500 0.523269309374996 7.35614433437500 
 N -4.86381305937500 4.80995130937500 7.49409033437500 
 S -5.67295005937500 0.200701309374996 5.94940333437500 
 S -5.71304305937500 4.73576030937500 6.05702133437500 
 S -2.83768405937500 1.20018030937500 3.08432233437500 
 S -2.90385705937500 4.46651530937500 3.12798633437500 
 S -3.19547005937500 0.935207309374996 7.11574833437500 
 S -3.21037905937500 4.85681530937500 7.27228233437500 
