16

 C -3.49137686250000 1.27881236562500 5.77393151875000 
 C -3.26229386250000 5.17126236562500 5.34936251875000 
 C -4.53995786250000 0.844218365624998 4.94981851875000 
 C -4.52142686250000 4.66025736562500 4.80073751875000 
 N -2.36225786250000 1.63676236562500 5.14831351875000 
 N -2.28120786250000 5.45714236562500 4.49539351875000 
 N -4.22886986250000 0.701282365624999 3.66568151875000 
 N -4.43018586250000 4.50029436562500 3.49741451875000 
 N -5.46740686250000 0.941532365624998 7.39261451875000 
 N -4.95600786250000 4.85995636562500 7.32126751875000 
 S -6.00667286250000 0.594450365624999 5.87619951875000 
 S -5.80974086250000 4.43881436562500 5.99034751875000 
 S -2.57212186250000 1.15955736562500 3.55464051875000 
 S -2.88275486250000 4.88625136562500 3.01487151875000 
 S -3.91209886250000 1.53605436562500 7.46811251875000 
 S -3.37337886250000 5.31012136562500 7.08497751875000 
