16

 C -3.39293213437500 1.26310595000001 5.21463308750000 
 C -3.15958713437500 5.13815095000001 5.33508008750000 
 C -4.59813113437500 0.721248950000005 4.64783508750000 
 C -4.46432413437500 4.71993695000000 4.77581008750000 
 N -2.34231913437500 1.45700495000001 4.41201208750000 
 N -2.20857613437500 5.17977595000001 4.42649308750000 
 N -4.41843813437500 0.453171950000004 3.35224408750000 
 N -4.43888613437500 4.37635495000000 3.50336808750000 
 N -4.95800513437500 0.908194950000004 7.18410108750000 
 N -4.88905713437500 4.76190895000000 7.35150008750000 
 S -5.91379813437500 0.783727950000005 5.79143808750000 
 S -5.76434813437500 4.65110995000000 5.93204808750000 
 S -2.81870813437500 0.755072950000004 2.98349008750000 
 S -2.91682013437500 4.61312395000000 2.95714708750000 
 S -3.40532413437500 1.44279295000000 6.97779908750000 
 S -3.24848613437500 5.39712895000000 7.16117008750000 
