16

 C -3.21780790000000 1.41186757500000 5.77325906875000 
 C -2.91470390000000 5.00188557500000 5.57829206875000 
 C -4.53627190000000 1.08981057500000 5.25481106875000 
 C -4.17098390000000 4.75412857500000 4.89932106875000 
 N -2.25984290000000 1.31632157500000 4.88315406875000 
 N -1.87926190000000 5.05524157500000 4.73681306875000 
 N -4.52309690000000 0.620737574999998 4.02542506875000 
 N -4.14922590000000 4.62210057500000 3.56034706875000 
 N -4.72352990000000 1.65624657500000 7.76723506875000 
 N -4.75274790000000 4.71172757500000 7.49228006875000 
 S -5.74662390000000 1.15020357500000 6.60977906875000 
 S -5.49288590000000 4.35350557500000 5.93790806875000 
 S -2.94802290000000 0.750299574999998 3.49741806875000 
 S -2.53842390000000 4.80119757500000 3.20861206875000 
 S -3.13658690000000 1.69761557500000 7.44574006875000 
 S -3.13960590000000 4.92904757500000 7.33074706875000 
