16

 C -2.85779369062499 1.34910754062500 5.82615291562500 
 C -3.24858469062499 5.06440554062500 5.66291991562500 
 C -4.17166469062499 1.30609854062500 5.16600591562500 
 C -4.52715169062499 4.85201954062500 4.97865791562500 
 N -1.80934269062499 1.41473054062500 5.00790791562500 
 N -2.20318269062499 5.12511554062500 4.86000691562500 
 N -4.05934669062500 1.26190354062500 3.83976591562500 
 N -4.47896369062499 4.77762954062500 3.64934491562500 
 N -4.59582469062499 1.40990254062500 7.65093191562500 
 N -5.08931369062499 4.85224854062500 7.48052291562500 
 S -5.45139369062499 1.26175554062500 6.28871391562500 
 S -5.85291169062499 4.63388254062500 6.00099291562500 
 S -2.48009869062499 1.32573154062500 3.45550691562500 
 S -2.88604069062499 4.90697954062500 3.29417091562500 
 S -2.94629769062499 1.55143554062500 7.49479291562500 
 S -3.43185469062499 5.11564554062500 7.42775091562500 
