16

 C -3.00701067187500 1.42950522187500 5.53578759687500 
 C -3.38854767187500 5.14950222187500 5.16940059687500 
 C -4.17270567187500 1.00652422187500 4.82160059687500 
 C -4.42417367187500 4.35116922187500 4.57479759687500 
 N -1.94040867187500 1.52536922187500 4.76733959687500 
 N -2.28488967187500 5.28831222187500 4.45743159687500 
 N -4.04242067187500 0.803534221875005 3.52639359687500 
 N -4.18742967187500 3.99314122187500 3.32419659687500 
 N -4.96309467187500 1.07253822187500 7.35000459687500 
 N -5.17435967187500 5.05127122187500 6.93523959687500 
 S -5.60304367187500 0.771880221875004 5.80162459687500 
 S -5.72911867187500 4.10271622187500 5.67176059687500 
 S -2.38824467187500 1.14010922187500 3.19303759687500 
 S -2.53896767187500 4.48686022187500 3.04729859687500 
 S -3.42999367187500 1.71258222187500 7.24700459687500 
 S -3.77292567187500 5.84875722187500 6.65206259687500 
