16

 C -3.20932744375000 1.00700852187500 5.42269457812500 
 C -3.11142244375000 4.60481452187500 5.54911957812500 
 C -4.40007744375000 0.569385521875000 4.78625157812500 
 C -4.41995244375000 4.73411952187500 4.92953957812500 
 N -2.22421144375000 1.35570052187500 4.62379457812500 
 N -2.09766444375000 4.41984552187500 4.63329857812500 
 N -4.24742644375000 0.515170521875000 3.47630557812500 
 N -4.41644544375000 4.70734252187500 3.58299357812500 
 N -4.83785044375000 0.543730521875000 7.32788057812500 
 N -4.88698844375000 4.86394152187500 7.48537857812500 
 S -5.66645444375000 0.196643521875000 5.93646457812500 
 S -5.73097244375000 4.76435052187500 6.03514357812500 
 S -2.81854044375000 1.17497252187500 3.07880457812500 
 S -2.90899844375000 4.44185452187500 3.11637857812500 
 S -3.19405144375000 0.940112521875000 7.11724357812500 
 S -3.18620944375000 4.85876252187500 7.30779557812500 
