16

 C -3.09827515000000 1.38540128437500 5.47820868750000 
 C -3.23358015000000 4.96336328437500 5.59241368750000 
 C -4.35889515000000 0.916915284375000 4.87158568750000 
 C -4.42148215000000 4.60687428437500 4.88151368750000 
 N -2.19684815000000 1.68646728437500 4.56520168750000 
 N -2.23811315000000 5.39307228437500 4.84029568750000 
 N -4.23313415000000 0.693612284375001 3.58117868750000 
 N -4.27107315000000 4.53382228437500 3.55959668750000 
 N -4.76897615000000 1.10618128437500 7.46323368750000 
 N -4.93311415000000 4.85250528437500 7.41150968750000 
 S -5.63447015000000 0.917099284375000 6.07291468750000 
 S -5.70122815000000 4.39079428437500 6.04755368750000 
 S -2.65446815000000 1.05047028437500 3.08294368750000 
 S -2.73934015000000 5.12793828437500 3.23099068750000 
 S -3.19593915000000 1.64065528437500 7.22810068750000 
 S -3.32723515000000 5.06773528437500 7.31791068750000 
