16

 C -3.11954964062500 1.62831540000000 5.47386003437500 
 C -3.03981164062500 5.31150040000000 5.48468903437500 
 C -4.30704064062500 1.19603440000000 4.83624103437500 
 C -4.28288864062500 4.95760540000000 4.84582003437500 
 N -2.10734864062500 1.83987640000000 4.68086203437500 
 N -2.00368564062500 5.43400640000000 4.65745903437500 
 N -4.18554264062500 1.10005640000000 3.52118803437500 
 N -4.21493264062500 4.84919440000000 3.53573603437500 
 N -4.76579264062500 1.36307340000000 7.31072103437500 
 N -4.77864664062500 4.99283440000000 7.41779003437500 
 S -5.64970664062500 1.06934740000000 5.89327303437500 
 S -5.58924464062500 4.92427240000000 5.93381803437500 
 S -2.50362364062500 1.38287440000000 3.18615703437500 
 S -2.59072664062500 5.12617840000000 3.11887003437500 
 S -3.16981664062500 1.67959440000000 7.13986003437500 
 S -3.14276864062500 5.39631540000000 7.24095703437500 
