16

 C -3.14180001562500 1.27437571875000 5.58838935625000 
 C -3.63988201562500 4.99004471875000 5.05116335625000 
 C -4.37826801562500 0.734121718750003 5.02867435625000 
 C -4.68762101562500 4.18279671875000 4.48409735625000 
 N -2.13209401562500 1.46229271875000 4.67913635625000 
 N -2.61517301562500 5.22626571875000 4.24245935625000 
 N -4.38006201562500 0.654427718750003 3.68021935625000 
 N -4.51097201562500 3.96702371875000 3.18853535625000 
 N -4.74034101562500 0.798983718750002 7.55887435625000 
 N -5.27610001562500 4.62726671875000 6.93405235625000 
 S -5.61216101562500 0.524684718750002 6.20838635625000 
 S -6.01290901562500 3.82875271875000 5.67481835625000 
 S -2.82619501562500 1.06107271875000 3.23188735625000 
 S -3.02745801562500 4.57303771875000 2.78335435625000 
 S -3.23171001562500 1.41692271875000 7.29111335625000 
 S -3.77536501562500 5.22455771875000 6.72955135625000 
