16

 C -2.92368935625000 1.59414441875000 5.38351128125000 
 C -3.01056335625000 5.15982541875000 5.67733228125000 
 C -4.19471235625000 1.24438041875000 4.80453028125000 
 C -4.17985335625000 4.66202541875000 4.99741128125000 
 N -1.88254735625000 1.55127141875000 4.51950128125000 
 N -1.95504935625000 5.41436141875000 4.88346828125000 
 N -4.14477435625000 0.991994418750002 3.47945228125000 
 N -4.01897235625000 4.47889141875000 3.71233428125000 
 N -4.51199635625000 1.24868041875000 7.42288128125000 
 N -4.88695735625000 4.85560941875000 7.47673428125000 
 S -5.39791535625000 1.10737441875000 6.04226128125000 
 S -5.54372835625000 4.37238741875000 6.02057628125000 
 S -2.62304635625000 1.31885041875000 3.03399328125000 
 S -2.49963735625000 5.06723341875000 3.32172128125000 
 S -2.88261635625000 1.61212841875000 7.17650228125000 
 S -3.30888235625000 5.37037641875000 7.40390428125000 
