16

 C -3.05742375625000 1.42513205937500 5.46646849687500 
 C -2.95573375625000 5.17350505937500 5.48372149687500 
 C -4.17242975625000 0.846047059375004 4.79537749687500 
 C -4.24156375625000 4.87628405937501 4.86953149687500 
 N -1.94769975625000 1.61578205937500 4.68346149687500 
 N -1.93162275625000 5.28197205937501 4.62481349687500 
 N -3.91689775625000 0.571544059375005 3.51790349687500 
 N -4.13405975625000 4.67015005937500 3.57082749687500 
 N -4.98412675625000 1.09283805937501 7.11583849687500 
 N -4.66165775625000 5.08823305937500 7.42012949687500 
 S -5.61040675625000 0.582973059375004 5.69226349687500 
 S -5.59147175625000 5.01237405937500 6.02992649687500 
 S -2.42997175625000 1.11321805937501 3.11977149687500 
 S -2.58498275625000 4.92313905937500 3.11189549687500 
 S -3.34433975625000 1.32911505937501 7.21318649687500 
 S -2.99549875625000 5.40262505937500 7.15089049687500 
