16

 C -2.96718714062500 1.66542785937500 5.44119560937500 
 C -3.05472314062500 5.21189985937500 5.67042060937500 
 C -4.24247414062500 1.29345285937500 4.86106160937500 
 C -4.18542214062500 4.62411485937500 4.99261260937500 
 N -2.01287714062500 1.75849185937500 4.56529560937500 
 N -2.00703614062500 5.48883985937500 4.90682960937500 
 N -4.25256214062500 1.11524185937500 3.56801660937500 
 N -4.04364614062500 4.56331185937500 3.66661060937500 
 N -4.49105814062500 1.22726685937500 7.40721960937500 
 N -4.84783614062500 4.80732685937500 7.46875260937500 
 S -5.49708214062500 1.16881785937500 6.05218160937500 
 S -5.61553514062500 4.44433885937500 6.02638260937500 
 S -2.62789414062500 1.31103285937500 3.09813560937500 
 S -2.47005114062500 5.08226485937500 3.38781360937500 
 S -2.83789214062500 1.63363685937500 7.10752660937500 
 S -3.28144914062500 5.34056685937500 7.32019660937500 
