16

 C -2.83205349375000 1.29605043124999 5.36537989062500 
 C -3.19911549375000 4.93734643124999 5.38645489062500 
 C -4.07437149375000 0.818564431249992 4.81826489062500 
 C -4.39214349375000 4.44426043124999 4.87159589062500 
 N -1.99617149375000 1.45852143124999 4.32888989062500 
 N -2.29712649375000 5.23590343124999 4.47419889062500 
 N -4.20030249375000 0.685641431249991 3.51226289062500 
 N -4.41064649375000 4.32539743124999 3.54194789062500 
 N -4.52328849375000 1.25909843124999 7.29461489062500 
 N -4.86177749375000 5.00192843124999 7.37205689062500 
 S -5.36297849375000 0.875688431249992 5.96648889062500 
 S -5.61132149375000 4.20888243124999 6.12357289062500 
 S -2.72653749375000 1.04357943124999 2.89673089062500 
 S -2.92726649375000 4.94904643124999 3.02395489062500 
 S -2.94328949375000 1.72645543124999 7.10733589062500 
 S -3.22041049375000 5.43663943124999 7.01722989062500 
