16

 C -3.29972329062500 1.20726282187500 5.68245122500000 
 C -2.91677629062500 5.11061382187500 5.54867022500000 
 C -4.45160329062500 0.661800821874998 5.03769022500000 
 C -4.09506729062500 4.58955482187500 4.90628022500000 
 N -2.22509429062500 1.32327682187500 4.88646922500000 
 N -1.91380229062500 5.26666582187500 4.67441722500000 
 N -4.26833129062500 0.453851821874998 3.73989022500000 
 N -4.05363429062500 4.43900682187500 3.57495822500000 
 N -5.05553829062500 0.693589821874998 7.43272922500000 
 N -4.65277629062500 4.65988082187500 7.38466722500000 
 S -5.81456129062500 0.360390821874998 6.01382522500000 
 S -5.41292629062500 4.30735882187500 5.94934522500000 
 S -2.76994829062500 0.893841821874997 3.40170822500000 
 S -2.51256729062500 4.89345882187500 3.18907522500000 
 S -3.49988829062500 1.24288682187500 7.35733022500000 
 S -3.10614729062500 5.25138482187500 7.30925222500000 
