16

 C -3.19715598750000 1.40863075000000 5.54768571250000 
 C -3.57527098750000 4.87639475000000 5.04329571250000 
 C -4.32649798750000 0.711557749999999 4.97811571250000 
 C -4.67846498750000 4.16259175000000 4.47207071250000 
 N -2.20813698750000 1.63051775000000 4.70300271250000 
 N -2.58406598750000 5.11026075000000 4.18427071250000 
 N -4.31716398750000 0.587136749999998 3.66716171250000 
 N -4.59176798750000 4.00696375000000 3.17330171250000 
 N -4.79317098750000 1.13957475000000 7.48498971250000 
 N -5.30764298750000 4.48847675000000 6.87297371250000 
 S -5.52474898750000 0.434859749999998 6.17220971250000 
 S -5.97559298750000 3.81885175000000 5.53148171250000 
 S -2.75672998750000 1.04248575000000 3.25336071250000 
 S -3.15055898750000 4.59711375000000 2.70635571250000 
 S -3.29133398750000 1.85543575000000 7.27366171250000 
 S -3.91921598750000 5.27552475000000 6.74033071250000 
