16

 C -3.28022521875000 0.915736043749997 5.41004826875000 
 C -3.23905421875000 5.00370104375000 5.58560626875000 
 C -4.53846221875000 0.694830043749997 4.75462226875000 
 C -4.48968921875000 4.57088904375000 4.93595426875000 
 N -2.20108621875000 1.11352404375000 4.60985626875000 
 N -2.27106921875000 5.24287904375000 4.73184926875000 
 N -4.51019021875000 0.768491043749997 3.40708926875000 
 N -4.37610121875000 4.36663804375000 3.62399626875000 
 N -5.02060921875000 0.614057043749997 7.32130226875000 
 N -4.99979521875000 4.57476204375000 7.43874726875000 
 S -5.88129721875000 0.404743043749997 5.90519826875000 
 S -5.87749021875000 4.42264904375000 5.99913926875000 
 S -2.82592221875000 0.976272043749997 3.09047526875000 
 S -2.80666621875000 4.90332204375000 3.23322826875000 
 S -3.37274821875000 0.800364043749997 7.14960726875000 
 S -3.33825521875000 4.84534304375000 7.32317926875000 
