16

 C -3.11874435625000 1.03173953437500 5.52869038750000 
 C -3.13836035625000 5.49172453437500 5.57607438750000 
 C -4.43215835625000 0.872938534375002 4.84314538750000 
 C -4.22312135625000 4.88661253437500 4.85220138750000 
 N -2.08325835625000 1.06899853437500 4.67211438750000 
 N -2.09760135625000 5.77378553437500 4.79333138750000 
 N -4.35184035625000 0.769200534375001 3.51978638750000 
 N -4.01069235625000 4.62870753437500 3.53968138750000 
 N -4.88854235625000 1.14106253437500 7.37699838750000 
 N -4.96640535625000 5.17262953437500 7.38108438750000 
 S -5.75242935625000 0.722399534375001 5.98475138750000 
 S -5.49244635625000 4.45038253437500 5.91849338750000 
 S -2.74452035625000 1.05701853437500 3.19403838750000 
 S -2.43508035625000 5.23988953437500 3.27301438750000 
 S -3.23654535625000 1.43444253437500 7.18515238750000 
 S -3.53211235625000 5.99479553437500 7.18698338750000 
