16

 C -3.10514293125000 1.56606781562500 5.69061726562500 
 C -3.13249393125000 5.19177081562500 5.65179826562500 
 C -4.40345893125000 1.43030881562500 5.06067926562500 
 C -4.36941793125000 4.91870681562500 4.93730426562500 
 N -2.08538393125000 1.70555081562500 4.83349626562500 
 N -2.07684793125000 5.35546881562500 4.88682226562500 
 N -4.32177893125000 1.42178581562500 3.70987126562500 
 N -4.20903493125000 4.91592581562500 3.61592826562500 
 N -4.83984093125000 1.61439381562500 7.64101726562500 
 N -4.82635293125000 4.99072681562500 7.52342326562500 
 S -5.66235493125000 1.29893681562500 6.25203726562500 
 S -5.64879793125000 4.62182281562500 6.12473026562500 
 S -2.75630993125000 1.76171081562500 3.34632226562500 
 S -2.63236093125000 5.32025281562500 3.31771226562500 
 S -3.21257593125000 1.87879081562500 7.40355826562500 
 S -3.21056693125000 5.30599881562500 7.36393726562500 
