16

 C -3.35938475937500 1.27648870312500 5.95977403125000 
 C -3.03793475937500 4.88194670312500 5.23677703125000 
 C -4.45683475937500 0.794510703125000 5.26914703125000 
 C -4.28608875937500 4.68369570312500 4.54418703125000 
 N -2.28278075937500 1.48655070312500 5.26281003125000 
 N -1.99069875937500 4.98788770312500 4.46377303125000 
 N -4.33004175937500 0.773571703125000 3.97691303125000 
 N -4.16690475937500 4.50530870312500 3.24002903125000 
 N -5.27157775937500 0.832003703124999 7.68069403125000 
 N -4.84529475937500 4.77993670312500 7.07375803125000 
 S -5.85415175937500 0.398817703125000 6.19452303125000 
 S -5.60740775937500 4.53992170312500 5.65031803125000 
 S -2.73275075937500 1.20252470312500 3.68006703125000 
 S -2.56745875937500 4.73706370312500 2.91970503125000 
 S -3.65576175937500 1.22356870312500 7.68072803125000 
 S -3.18511975937500 5.01142270312500 6.95202203125000 
