16

 C -3.08368125312500 1.95750193125000 5.77210874687500 
 C -3.12770125312500 5.40895693125000 5.63649774687500 
 C -4.31907825312500 1.62958193125000 5.15530674687500 
 C -4.39717625312500 5.04479593125000 5.05000474687500 
 N -2.04068125312500 1.97416893125000 4.96772574687500 
 N -2.11207725312500 5.50435293125000 4.78537874687500 
 N -4.22982125312500 1.42746693125000 3.85798174687500 
 N -4.30745325312500 4.79509293125000 3.75018074687500 
 N -4.73342625312500 1.39000593125000 7.65002674687500 
 N -4.80973625312500 5.08939093125000 7.62685674687500 
 S -5.60907925312500 1.47972993125000 6.25090374687500 
 S -5.64860825312500 4.82930593125000 6.21457074687500 
 S -2.60294625312500 1.71683693125000 3.42307774687500 
 S -2.75963525312500 5.14909293125000 3.31083574687500 
 S -3.13616725312500 1.74730193125000 7.52907474687500 
 S -3.18062225312500 5.33907393125000 7.38714474687500 
