16

 C -2.88314557187500 1.91307136250000 5.60448471875000 
 C -3.16032357187500 5.25982236250000 5.68319971875001 
 C -4.13821657187500 1.61601036250000 5.02114571875001 
 C -4.43202957187500 4.89908236250000 5.09803271875001 
 N -1.92136157187500 1.87502536250000 4.71023671875000 
 N -2.13487757187500 5.36093136250000 4.83424971875001 
 N -4.10644157187500 1.30868236250000 3.75603471875000 
 N -4.30597557187500 4.57232836250000 3.81617471875000 
 N -4.43227757187500 1.44402136250000 7.45125971875001 
 N -4.89503857187500 5.13933236250000 7.60781071875000 
 S -5.42797357187500 1.51964536250000 6.14834471875001 
 S -5.71464057187500 4.69204136250000 6.26229171875000 
 S -2.56593257187500 1.58688536250000 3.22973671875000 
 S -2.78868957187500 4.90573736250000 3.33389171875000 
 S -2.85153757187500 1.95170336250000 7.32974771875000 
 S -3.27475857187500 5.40123336250000 7.36853071875001 
