16

 C -3.10556682187500 1.60048054062500 5.63226619062500 
 C -3.24770482187500 4.92543854062500 5.44401319062500 
 C -4.42397682187500 1.27255154062500 5.04873519062500 
 C -4.48442182187500 4.72745454062500 4.73421419062500 
 N -2.08292282187500 1.56051354062500 4.73842619062500 
 N -2.17249682187500 4.86359854062500 4.66613119062500 
 N -4.43421882187500 1.15462154062500 3.70178019062500 
 N -4.37512482187500 4.66299254062500 3.40105419062500 
 N -4.83401682187500 1.62212954062500 7.54704419062500 
 N -5.04085482187500 4.89981954062500 7.33842719062500 
 S -5.69082282187500 1.19622954062500 6.20597719062500 
 S -5.82037182187500 4.57612454062500 5.86819419062500 
 S -2.88828682187500 1.37414754062500 3.29843719062500 
 S -2.72127982187500 4.82996054062500 3.11793219062500 
 S -3.17712182187500 1.83208254062500 7.37630519062500 
 S -3.39307082187500 5.12117854062500 7.16347919062500 
