16

 C -3.00733216562500 1.41913995625000 5.55905853437500 
 C -3.31192316562500 5.14078895625000 5.19168353437500 
 C -4.21220916562500 1.05267695625000 4.77315853437500 
 C -4.41319516562500 4.42017395625000 4.58743653437500 
 N -1.87335816562500 1.58334995625000 4.82232153437500 
 N -2.19912016562500 5.23468395625000 4.44536953437500 
 N -3.95917716562500 0.865941956249996 3.47190253437500 
 N -4.13195816562500 4.00556995625000 3.35166653437500 
 N -5.03109016562500 1.10340195625000 7.25600253437500 
 N -5.26782016562500 5.11229395625000 6.85723753437500 
 S -5.61790116562500 0.806056956249996 5.76877553437500 
 S -5.76115216562500 4.10116095625000 5.66883053437500 
 S -2.39924016562500 1.13343495625000 3.26629853437500 
 S -2.57396616562500 4.41828595625000 3.04652953437500 
 S -3.46029916562500 1.68344195625000 7.27199453437500 
 S -3.77635716562500 5.86121495625000 6.70544253437500 
