16

 C -3.29666757812500 1.28590310937500 5.27498935000000 
 C -3.11143357812500 5.26997610937500 5.48068235000000 
 C -4.55527757812500 0.816939109374999 4.72972235000000 
 C -4.37629857812500 5.08393410937500 4.76408035000000 
 N -2.35323257812500 1.42625010937500 4.34395835000000 
 N -2.01472457812500 5.42668610937500 4.74699735000000 
 N -4.53673757812500 0.601617109375000 3.40420835000000 
 N -4.21731357812500 5.18974410937500 3.48858435000000 
 N -4.97849157812500 1.08818010937500 7.24686635000000 
 N -5.05822257812500 4.93201910937500 7.14187535000000 
 S -5.77678357812500 0.514767109375000 5.89698135000000 
 S -5.83689557812500 5.01072510937500 5.72937735000000 
 S -3.00588357812500 0.961404109375000 2.94515835000000 
 S -2.62515357812500 5.44103910937500 3.18229035000000 
 S -3.44782857812500 1.58193910937500 6.96909635000000 
 S -3.42631757812500 5.13684010937500 7.19882135000000 
