16

 C -3.21536970312500 1.60644296250000 5.62494466562500 
 C -2.98995870312500 5.41786696250000 5.50866466562500 
 C -4.36302770312500 1.23929596250000 4.86710666562500 
 C -4.24856770312500 4.96980496250000 4.95445066562500 
 N -2.13767470312500 1.91183796250000 4.88605266562500 
 N -1.96618070312500 5.37662196250000 4.64158166562500 
 N -4.18393770312500 1.32204496250000 3.57013166562500 
 N -4.24485970312500 4.74497996250000 3.65466966562500 
 N -5.04141970312500 0.807280962500001 7.27864666562500 
 N -4.78322870312500 5.20039896250000 7.41533566562500 
 S -5.79010270312500 0.772501962500002 5.71817866562500 
 S -5.55538470312500 4.83360696250000 6.04646066562500 
 S -2.62471970312500 1.72719496250000 3.30049766562500 
 S -2.67732070312500 5.00587496250000 3.18214766562500 
 S -3.40088170312500 1.23248196250000 7.28601666562500 
 S -3.20412170312500 5.43094996250000 7.24892366562500 
