16

 C -3.35011364062500 1.34628475312500 5.69895437812500 
 C -3.30605364062500 5.09506375312500 5.25301237812500 
 C -4.54766364062500 0.950595753125000 4.99339737812500 
 C -4.45466064062500 4.48240275312500 4.60102237812500 
 N -2.27689864062500 1.48959275312500 4.90316437812500 
 N -2.28536564062500 5.25291875312500 4.42899437812500 
 N -4.42214664062500 0.861442753125000 3.67220937812500 
 N -4.34991764062500 4.34774375312500 3.27272037812500 
 N -5.20371964062500 0.914792753125000 7.47557437812500 
 N -4.97217964062500 4.71818775312500 7.15490337812500 
 S -5.95465464062500 0.765309753125000 5.98123337812500 
 S -5.84206164062500 4.38249075312500 5.74331937812500 
 S -2.86064764062500 1.19899475312500 3.36236037812500 
 S -2.79983164062500 4.88524675312500 2.92064737812500 
 S -3.63088364062500 1.48790775312500 7.43817337812500 
 S -3.48013964062500 5.33260775312500 6.94594037812500 
