16

 C -3.16969069062500 1.50856004062500 5.63977122812500 
 C -3.24818369062500 4.94389504062500 5.42373122812500 
 C -4.44675669062500 1.26198704062500 4.96334522812500 
 C -4.48757569062500 4.77429804062500 4.70232522812500 
 N -2.12175269062500 1.59280304062500 4.81028022812500 
 N -2.16162669062500 4.90020704062500 4.67415522812500 
 N -4.30719269062500 1.08512504062500 3.63830022812500 
 N -4.31101669062500 4.64826104062500 3.39029222812500 
 N -4.90692869062500 1.51128304062500 7.58063022812500 
 N -5.08930369062500 5.02113204062500 7.13941622812500 
 S -5.73556269062500 1.09473704062500 6.16297722812500 
 S -5.90030569062500 4.58818804062500 5.76339622812500 
 S -2.68509869062500 1.20527404062500 3.25371522812500 
 S -2.72026769062500 4.64692304062500 3.12176822812500 
 S -3.30033069062500 1.84256804062500 7.32809322812500 
 S -3.47452369062500 5.27290204062500 7.08946422812500 
