16

 C -2.87890467812500 1.39972915000000 5.31387209062500 
 C -3.10104667812500 5.10225415000000 5.47512909062500 
 C -4.13268767812500 0.900478150000001 4.79267009062500 
 C -4.31275667812500 4.53433715000000 4.89383509062500 
 N -1.89152867812500 1.54462615000000 4.44681209062500 
 N -2.10204967812500 5.26551315000000 4.57404709062500 
 N -4.02126167812500 0.614193150000000 3.48132509062500 
 N -4.23594167812500 4.28429015000000 3.60964109062500 
 N -4.44139167812500 1.14205815000000 7.29783209062500 
 N -4.89121467812500 4.94661415000000 7.35043609062500 
 S -5.38793467812500 0.708863150000001 6.04419509062500 
 S -5.59216167812500 4.30991315000000 6.03742709062500 
 S -2.52291367812500 1.20358915000000 2.96748609062500 
 S -2.67520067812500 4.75538315000000 3.11722809062500 
 S -2.94940467812500 1.76589615000000 6.95374709062500 
 S -3.28090967812500 5.46245715000000 7.16597609062500 
