16

 C -3.44166307500000 1.82371320937501 5.59305340625000 
 C -2.89132207500000 5.15381720937500 5.50128840625000 
 C -4.62912507500000 1.26926720937501 4.91555740625000 
 C -4.17603507500000 4.91557320937500 4.94157440625000 
 N -2.38851007500000 2.04441720937501 4.81375340625000 
 N -1.90968907500000 5.22066520937500 4.62106140625000 
 N -4.42471307500000 0.975380209375006 3.63112840625000 
 N -4.25095507500000 4.72703320937500 3.62551840625000 
 N -5.07672807500000 1.29295820937500 7.46223140625000 
 N -4.62147807500000 4.91999520937500 7.45066040625000 
 S -5.99026607500000 1.17066120937501 6.06038740625000 
 S -5.48145807500000 4.83732520937500 6.04365140625000 
 S -2.80910807500000 1.41440520937500 3.35331940625000 
 S -2.67889607500000 4.99863020937500 3.15019740625000 
 S -3.53571307500000 1.84674320937500 7.30710640625000 
 S -3.04646107500000 5.27957220937500 7.28879940625000 
