16

 C -3.14617577500000 1.66903157812500 5.43366126562500 
 C -3.66722077500000 4.95437257812500 5.03547726562500 
 C -4.18133277500000 0.747089578124996 4.93828926562500 
 C -4.75644777500000 4.23530257812500 4.38346826562500 
 N -2.14334377500000 1.83967957812500 4.57995126562500 
 N -2.64079477500000 5.20251757812500 4.22601526562500 
 N -3.96703677500000 0.296321578124996 3.71584526562500 
 N -4.49758177500000 3.96060157812500 3.10874626562500 
 N -4.87215577500000 1.37257757812500 7.41536226562500 
 N -5.38927377500000 4.75249757812500 6.83130526562500 
 S -5.54284877500000 0.500692578124996 6.16290426562500 
 S -6.00540877500000 3.88028157812500 5.56208926562500 
 S -2.59737577500000 1.10986757812500 3.14784926562500 
 S -3.00810877500000 4.59207357812500 2.76350926562500 
 S -3.39641877500000 2.07635357812500 7.15437626562500 
 S -3.85126377500000 5.21738057812500 6.73879626562500 
