16

 C -3.19007384062500 1.12539260000000 5.56241436875000 
 C -3.14366484062500 5.64508960000000 5.56296236875000 
 C -4.40583784062500 0.746781600000000 4.89593036875000 
 C -4.19702184062500 4.92361360000000 4.91810536875000 
 N -2.15875484062500 1.17170260000000 4.72305036875000 
 N -2.02154984062500 5.84438760000000 4.85254936875000 
 N -4.35577784062500 0.690296600000001 3.58111936875000 
 N -3.94170684062500 4.77831660000000 3.60371336875000 
 N -5.00612084062500 1.23532660000000 7.34687536875000 
 N -4.89044884062500 5.07144360000000 7.35409136875000 
 S -5.72104784062500 0.741416600000001 5.94642736875000 
 S -5.53603484062500 4.44997760000000 5.98600136875000 
 S -2.76816084062500 1.06561060000000 3.14759936875000 
 S -2.45136884062500 5.34904560000000 3.29361336875000 
 S -3.39298784062500 1.45407360000000 7.23209936875000 
 S -3.47462884062500 5.96990360000000 7.23597436875000 
