16

 C -3.23187221250000 1.51685344062500 5.46394521250000 
 C -2.96739621250000 5.04995244062500 5.48456921250000 
 C -4.48583921250000 1.05682344062500 4.88550521250000 
 C -4.24992121250000 4.70333544062500 4.91557321250000 
 N -2.31406121250000 1.78812144062500 4.55568721250000 
 N -1.93823421250000 5.15293644062500 4.68383321250000 
 N -4.47120521250000 0.939435440625003 3.51850221250000 
 N -4.13447621250000 4.35175544062500 3.66122121250000 
 N -4.82343321250000 1.41916944062500 7.51819421250000 
 N -4.71081821250000 5.08269244062500 7.44255821250000 
 S -5.71788721250000 0.892904440625002 6.14605021250000 
 S -5.58725921250000 4.79055244062500 6.05736721250000 
 S -2.86464621250000 1.37606744062500 3.07381121250000 
 S -2.51290321250000 4.58765044062500 3.22094221250000 
 S -3.25785521250000 1.76670144062500 7.22025521250000 
 S -3.07612921250000 5.33337544062500 7.24404621250000 
