16

 C -3.29833208437500 1.50814295937500 5.48623854062500 
 C -3.07866808437500 5.19695395937500 5.87370754062500 
 C -4.50848208437500 1.15967995937500 4.78401754062500 
 C -4.39061508437500 4.96032995937500 5.26987754062500 
 N -2.23705408437500 1.68916095937500 4.68808354062500 
 N -2.08337208437500 5.24917395937500 5.00392054062500 
 N -4.41741508437500 1.08206495937500 3.43448054062500 
 N -4.41150008437500 4.81613895937500 3.96017154062500 
 N -5.03995208437500 1.04432695937500 7.37000754062500 
 N -4.79432408437500 5.08332195937500 7.84442354062500 
 S -5.82171108437500 0.716088959374998 5.88923554062500 
 S -5.66344508437500 5.02186995937500 6.47082654062500 
 S -2.81917708437500 1.51400995937500 3.11081154062500 
 S -2.78132308437500 5.05871595937500 3.54379254062500 
 S -3.46340108437500 1.58023895937500 7.21433654062500 
 S -3.16529208437500 5.37900395937500 7.60908554062500 
