16

 C -3.29923216875000 1.05330175625000 5.65922942187500 
 C -2.87526816875000 4.98914375625000 5.48355642187500 
 C -4.41629916875000 0.554863756250001 4.93614642187500 
 C -4.05802916875000 4.47648275625000 4.82967742187500 
 N -2.22435016875000 1.29650775625000 4.89451642187500 
 N -1.89989416875000 5.32395275625000 4.66251042187500 
 N -4.16387016875000 0.372736756250001 3.60098142187500 
 N -3.87803416875000 4.25746275625000 3.53172842187500 
 N -5.17133616875000 0.764844756250000 7.44840042187500 
 N -4.66558416875000 4.74042375625000 7.30022142187500 
 S -5.83334516875000 0.353732756250001 6.00615342187500 
 S -5.50762216875000 4.35071775625000 5.93775742187500 
 S -2.62745916875000 0.916230756250001 3.34486242187500 
 S -2.37284116875000 4.90221475625000 3.16209842187500 
 S -3.56052516875000 1.00931375625000 7.40281642187500 
 S -3.11672816875000 5.17700175625000 7.20941142187500 
