16

 C -2.90626255000000 1.71431481875000 5.43021331250000 
 C -3.21989055000000 5.10210781875000 5.65294831250000 
 C -4.16222155000000 1.26421781875000 4.89210231250000 
 C -4.44234755000000 4.64236781875000 5.01528531250000 
 N -1.93766055000000 1.89604881875000 4.57774931250000 
 N -2.19526455000000 5.31262981875000 4.86169231250000 
 N -4.15586055000000 1.16008281875000 3.56426431250000 
 N -4.32106755000000 4.50185681875000 3.69759031250000 
 N -4.49480155000000 1.82657981875000 7.41285231250000 
 N -4.95612555000000 4.92574881875000 7.56752131250000 
 S -5.41676055000000 1.36927681875000 6.09593531250000 
 S -5.74595955000000 4.58841781875000 6.13690631250000 
 S -2.60088455000000 1.50073781875000 3.08597931250000 
 S -2.76011255000000 4.98287981875000 3.29123131250000 
 S -2.85185655000000 1.99553481875000 7.19046231250000 
 S -3.32463055000000 5.24836881875000 7.36536331250000 
