16

 C -3.11202039062500 1.46762574687500 5.60782757812500 
 C -3.33794339062500 5.03846174687500 5.26393957812500 
 C -4.26527039062500 1.00313874687500 4.83845357812500 
 C -4.44069639062500 4.36560974687500 4.64209057812500 
 N -2.03683139062500 1.64152474687500 4.89169457812500 
 N -2.24997239062500 5.26333974687500 4.51372957812500 
 N -3.96699039062500 0.801641746874998 3.57732957812500 
 N -4.10731739062500 3.94648574687500 3.42833357812500 
 N -5.06653639062500 1.22658174687500 7.26750157812500 
 N -5.29396339062500 5.35684774687500 6.86272257812500 
 S -5.71356439062500 0.981689746874998 5.79466957812500 
 S -5.91272439062500 4.43921674687500 5.57705957812500 
 S -2.35464439062500 1.19005074687500 3.28815457812500 
 S -2.57290239062500 4.42884674687500 3.11936757812500 
 S -3.50398639062500 1.64943474687500 7.26367757812500 
 S -3.64061739062500 5.60769274687500 6.86258657812500 
