16

 C -3.15369829062499 1.21476278437500 5.21632780312500 
 C -3.25963329062499 4.99909878437500 5.45058080312500 
 C -4.45702229062499 0.869707784375004 4.67090080312500 
 C -4.55960929062499 4.62919778437500 4.89615080312500 
 N -2.20670529062499 1.14752678437500 4.26098780312500 
 N -2.28001729062499 5.21028278437500 4.61511280312500 
 N -4.51094129062499 0.672627784375004 3.33510880312500 
 N -4.52825529062499 4.51995178437500 3.55661580312500 
 N -4.88542329062499 1.35017778437500 7.12031680312500 
 N -4.82147029062499 4.90769278437500 7.54785380312500 
 S -5.79595529062499 0.813825784375004 5.83324980312500 
 S -5.78487929062499 4.47587578437500 6.17551280312500 
 S -2.97672829062499 0.799468784375005 2.83973980312500 
 S -2.97355129062499 4.91987678437500 3.15516980312500 
 S -3.23712829062499 1.61559878437500 6.91501880312500 
 S -3.24141529062499 5.25076078437500 7.17827380312500 
