16

 C -3.04734675625000 1.25267199375000 5.54225832187500 
 C -2.96656275625000 5.24970899375000 5.51078532187500 
 C -4.21532675625000 0.915689993749996 4.73630532187500 
 C -4.21254175625000 4.94401199375000 4.85767932187500 
 N -1.89528275625000 1.29216299375000 4.87820632187500 
 N -1.89200275625000 5.20753499375000 4.68521832187500 
 N -3.91472175625000 0.853241993749997 3.46331132187500 
 N -4.07732475625000 4.68212899375000 3.57091332187500 
 N -4.91460475625000 1.31438699375000 7.15519632187500 
 N -4.77766575625000 5.22849899375000 7.38240832187500 
 S -5.62626775625000 0.717788993749997 5.82365932187500 
 S -5.58483375625000 4.88428199375000 5.89176932187500 
 S -2.29428975625000 1.03281399375000 3.24955332187500 
 S -2.50315475625000 4.85938999375000 3.12141432187500 
 S -3.28218175625000 1.48235299375000 7.20358132187500 
 S -3.07679675625000 5.48626299375000 7.26913432187500 
