16

 C -3.20594994062500 0.823032593749998 5.67730772187500 
 C -3.04087694062500 5.15964959375000 5.39808372187500 
 C -4.37495494062500 0.565458593749998 4.87013872187500 
 C -4.19610594062500 4.61792159375000 4.74948072187500 
 N -2.10260594062500 0.980085593749998 4.91087072187500 
 N -1.93683394062500 5.18743259375000 4.62146772187500 
 N -4.20205794062500 0.748356593749998 3.56286872187500 
 N -4.08104594062500 4.42985959375000 3.44825072187500 
 N -5.09700194062500 0.615829593749998 7.34586372187500 
 N -4.89608994062500 4.74374059375000 7.19406672187500 
 S -5.76337594062500 0.367491593749998 5.85693472187500 
 S -5.52513694062500 4.17573959375000 5.78185872187500 
 S -2.55183194062500 0.913482593749998 3.28566572187500 
 S -2.49990194062500 4.64416959375000 3.06425272187500 
 S -3.47995394062500 0.962139593749998 7.38800872187500 
 S -3.30173894062500 5.25517159375000 7.14525772187500 
