16

 C -2.96784633750000 1.59156844687500 5.40078375625000 
 C -3.21879633750000 5.19064844687500 5.59001675625000 
 C -4.26245233750000 1.20680944687500 4.84428375625000 
 C -4.42015533750000 4.79354144687500 4.94040975625000 
 N -2.00037833750000 1.67284244687500 4.46822575625000 
 N -2.18071833750000 5.25091444687500 4.72777975625000 
 N -4.23197633750000 1.03851644687500 3.50749175625000 
 N -4.38285933750000 4.75182844687500 3.59803575625000 
 N -4.62438633750000 1.47526544687500 7.43886375625000 
 N -4.99708933750000 4.62466244687500 7.48116875625000 
 S -5.49344433750000 1.12169444687500 6.03025575625000 
 S -5.71367333750000 4.39285844687500 5.98216175625000 
 S -2.64742833750000 1.20012544687500 3.01129475625000 
 S -2.78940733750000 4.98583144687500 3.23809475625000 
 S -3.02924533750000 1.95869344687500 7.16877075625000 
 S -3.41025233750000 5.15650544687500 7.37018475625000 
