16

 C -2.98253506562500 1.37153211250000 5.37977930937500 
 C -3.17873706562500 5.24800811249999 5.99852330937500 
 C -4.20882306562500 0.893557112499995 4.68857130937500 
 C -4.38100306562500 4.89588511249999 5.27985230937500 
 N -2.00156906562500 1.73162211249999 4.57428230937500 
 N -2.05978806562500 5.37308711250000 5.23550830937500 
 N -4.11476006562500 0.864944112499995 3.37958830937500 
 N -4.23961006562500 4.80705511250000 3.97106930937500 
 N -4.84316406562500 1.15893011249999 7.20830330937500 
 N -5.06281506562500 5.04290811249999 7.79667730937500 
 S -5.55475806562500 0.673152112499994 5.79708230937500 
 S -5.84732506562500 4.84226011249999 6.29753430937500 
 S -2.49531406562500 1.32383111250000 2.98814330937500 
 S -2.64190206562500 5.13616811249999 3.67200730937500 
 S -3.23831406562500 1.66862211249999 7.06667230937500 
 S -3.42832206562500 5.53979811249999 7.70555130937500 
