16

 C -3.09272842812500 1.19358724687500 5.81806935000000 
 C -3.20979342812500 5.05671224687500 5.49154835000000 
 C -4.21912442812500 0.605938246875001 5.15980735000000 
 C -4.37420342812500 4.46640424687500 4.88429035000000 
 N -2.03858942812500 1.35549124687500 5.04491335000000 
 N -2.16995742812500 5.26208524687500 4.68138435000000 
 N -4.05841742812500 0.420311246875002 3.86672235000000 
 N -4.25849042812500 4.26434724687500 3.58255335000000 
 N -4.71390042812500 0.843642246875001 7.64896335000000 
 N -4.84137542812500 4.48125424687500 7.38874535000000 
 S -5.53138942812500 0.443572246875002 6.25715535000000 
 S -5.72078742812500 4.17409124687500 5.99117835000000 
 S -2.43057342812500 0.775413246875002 3.55283735000000 
 S -2.75108242812500 4.84776424687500 3.18312235000000 
 S -3.14826742812500 1.41951824687500 7.52144635000000 
 S -3.37217142812500 5.29807324687500 7.16862435000000 
