16

 C -3.35349640937500 1.36480023750000 5.29355619062500 
 C -3.15597140937500 5.03871423750000 5.41990919062500 
 C -4.59320440937500 0.859772237500001 4.66057519062500 
 C -4.40375840937500 5.07758223750000 4.66814819062500 
 N -2.33701840937500 1.43563523750000 4.45941319062500 
 N -2.10260940937500 5.26694123750000 4.67042319062500 
 N -4.51263640937500 0.639233237500002 3.34077319062500 
 N -4.23642940937500 5.20663223750000 3.37251219062500 
 N -4.97192440937500 1.18311123750000 7.21530519062500 
 N -4.98403940937500 4.76242323750000 7.25216819062500 
 S -5.77845340937500 0.574262237500002 5.85031419062500 
 S -5.80653340937500 4.98712723750000 5.75803219062500 
 S -2.96929840937500 1.10425723750000 2.90574719062500 
 S -2.59220640937500 5.43811723750000 3.08899419062500 
 S -3.37163040937500 1.58391323750000 6.99849919062500 
 S -3.32093140937500 5.10578123750000 7.14008119062500 
