16

 C -3.19310091250000 1.37882386250000 5.36883691250000 
 C -3.22288791250000 5.06653486250000 5.41052691250000 
 C -4.35329891250000 0.566052862499996 4.88565091250000 
 C -4.49682791250000 4.65855586250000 4.92232991250000 
 N -2.22393591250000 1.52982186250000 4.47479091250000 
 N -2.21306491250000 5.07062786250000 4.53679491250000 
 N -4.16182191250000 0.316170862499996 3.58915791250000 
 N -4.43479991250000 4.34680186250000 3.62622891250000 
 N -4.86762291250000 1.26110986250000 7.37194191250000 
 N -4.79756691250000 4.87999686250000 7.44953691250000 
 S -5.56276491250000 0.378380862499996 6.13729891250000 
 S -5.77305991250000 4.71312986250000 6.13398291250000 
 S -2.70884091250000 0.873524862499997 3.05925491250000 
 S -2.91595791250000 4.70741386250000 3.09852791250000 
 S -3.39535091250000 1.89958186250000 7.01203791250000 
 S -3.28240491250000 5.35709686250000 7.09453391250000 
