16

 C -3.14230754375000 1.18537403437500 5.39408367500000 
 C -2.81152454375000 5.25442803437500 5.39969267500000 
 C -4.43152954375000 0.752422034375000 4.85882167500000 
 C -4.02864554375000 4.82541203437500 4.73073867500000 
 N -2.14562754375000 1.10542003437500 4.49166167500000 
 N -1.70982254375000 5.35839903437500 4.64934067500000 
 N -4.47768254375000 0.476463034375000 3.54643167500000 
 N -3.86732554375000 4.69228703437500 3.44213567500000 
 N -4.78676154375000 1.01994803437500 7.36037567500000 
 N -4.68452754375000 4.79695003437500 7.16807267500000 
 S -5.72237754375000 0.843749034375000 6.00668867500000 
 S -5.40605554375000 4.62972403437500 5.67851867500000 
 S -2.93682454375000 0.699814034375000 3.06013867500000 
 S -2.29116954375000 5.06274903437500 3.10160667500000 
 S -3.19628654375000 1.62394803437500 7.11570967500000 
 S -3.08745054375000 5.36758203437500 7.10909767500000 
