16

 C -3.02936254375000 1.44628226250000 5.43356265625000 
 C -3.07653354375000 5.13206726250000 5.62944065625000 
 C -4.14211254375000 0.828876262500001 4.80718065625000 
 C -4.17394654375000 4.45212726250000 4.90928465625000 
 N -1.98694054375000 1.71779726250000 4.57900565625000 
 N -1.99464054375000 5.33572926250000 4.90552865625000 
 N -4.05186554375000 0.630549262500001 3.48721765625000 
 N -3.90755254375000 4.17470726250000 3.60534765625000 
 N -4.76520654375000 0.962250262500001 7.34883065625000 
 N -5.09112954375000 4.97645626250000 7.24640465625000 
 S -5.39859454375000 0.383270262500002 5.91006265625000 
 S -5.67592154375000 4.41212126250000 5.85016365625000 
 S -2.55619254375000 1.33945626250000 3.04588465625000 
 S -2.31915154375000 4.78009926250000 3.37874165625000 
 S -3.21551554375000 1.67374726250000 7.15062965625000 
 S -3.48568854375000 5.51640626250000 7.23826365625000 
