16

 C -3.10432498437500 1.62753763437500 5.44274110000000 
 C -3.04926198437500 5.27585563437500 5.51628010000000 
 C -4.35640598437500 1.35584163437500 4.81566110000000 
 C -4.28497398437500 4.93621963437500 4.82122910000000 
 N -2.10013298437500 1.69769363437500 4.57966710000000 
 N -2.04375998437500 5.42108763437500 4.68152810000000 
 N -4.30256298437500 1.25568963437500 3.49556010000000 
 N -4.23682498437500 4.83688063437500 3.50536610000000 
 N -4.92048298437500 1.31749863437500 7.29215110000000 
 N -4.72845098437500 4.94609763437500 7.42438310000000 
 S -5.67974898437500 1.25643063437500 5.83908210000000 
 S -5.59139198437500 4.78499463437500 5.94773710000000 
 S -2.66440898437500 1.53535963437500 2.99431010000000 
 S -2.62932498437500 5.27141463437500 3.12667910000000 
 S -3.29349998437500 1.57532763437500 7.21209510000000 
 S -3.05189198437500 5.11461563437500 7.22246210000000 
