16

 C -3.01352993125000 1.08397503750000 5.73332196250000 
 C -2.84378593125000 4.69559003750000 5.46855196250000 
 C -4.39902093125000 0.946120037500000 5.22445396250000 
 C -4.09811193125000 4.43866203750000 4.82149496250000 
 N -2.11375293125000 0.993178037500000 4.81651596250000 
 N -1.86968993125000 4.88397203750000 4.59618496250000 
 N -4.50770993125000 0.625795037500000 3.93415096250000 
 N -4.06963793125000 4.31248003750000 3.47134796250000 
 N -4.48255493125000 1.74434303750000 7.69581396250000 
 N -4.72875593125000 4.81629703750000 7.29431696250000 
 S -5.52191493125000 1.43693503750000 6.50843296250000 
 S -5.48304193125000 4.61144503750000 5.81858496250000 
 S -2.83183093125000 0.543200037500000 3.38134896250000 
 S -2.45649893125000 4.65922903750000 3.07348496250000 
 S -2.88859693125000 1.65140103750000 7.38967396250000 
 S -2.96273193125000 4.79521503750000 7.17272096250000 
