16

 C -3.40236907187500 1.28309487500000 5.42607356562500 
 C -3.17060007187500 5.08660187500000 5.00246856562500 
 C -4.41062807187500 0.491150875000001 4.77867756562500 
 C -4.30937607187500 4.46146787500000 4.30461756562500 
 N -2.46493907187500 1.77208387500000 4.63220856562500 
 N -2.16076707187500 5.43720987500000 4.22254556562500 
 N -4.19620407187500 0.356636875000000 3.48490656562500 
 N -4.12444107187500 4.41072987500000 2.96037456562500 
 N -5.13208507187500 0.815648875000001 7.23234856562500 
 N -4.78904707187500 4.25513887500000 6.87264156562500 
 S -5.73310207187500 0.188797875000001 5.82670956562500 
 S -5.56436607187500 3.82902187500000 5.42628756562500 
 S -2.82169407187500 1.15581987500000 3.11090156562500 
 S -2.66086707187500 5.07841687500000 2.66191556562500 
 S -3.59087607187500 1.48307687500000 7.13198456562500 
 S -3.40123907187500 5.24383987500000 6.74687056562500 
