16

 C -3.07799015000000 1.44869479062500 5.65373457187500 
 C -2.85245115000000 5.23654279062500 5.42365457187500 
 C -4.33260415000000 1.09925479062500 5.05691657187500 
 C -4.15138515000000 4.84415379062500 4.82975457187500 
 N -2.07390615000000 1.51432179062500 4.78593157187500 
 N -1.92536315000000 5.44406079062500 4.51912557187500 
 N -4.29598015000000 1.01143679062500 3.71412557187500 
 N -4.09349215000000 4.79491379062500 3.51094757187500 
 N -4.77300815000000 1.46479979062500 7.55294057187500 
 N -4.64331615000000 4.96875279062500 7.31762457187500 
 S -5.61279715000000 0.870444790624997 6.30186357187500 
 S -5.46615715000000 4.56225179062500 5.90765857187500 
 S -2.73703815000000 1.38966079062500 3.31540957187500 
 S -2.52847615000000 5.17609279062500 3.02275557187500 
 S -3.13971715000000 1.73004379062500 7.34418657187500 
 S -3.04652115000000 5.45112879062500 7.21402757187500 
