16

 C -3.05691039375000 1.19819206562500 5.66101200625001 
 C -2.92311439375000 4.81686906562500 5.47164900625001 
 C -4.33878639375000 0.893539065625004 5.08032200625001 
 C -4.21330739375000 4.40086906562500 4.89032900625001 
 N -2.06932539375000 1.33819106562500 4.80004800625001 
 N -1.92485439375000 4.93598206562500 4.60919700625000 
 N -4.29177239375000 0.728047065625003 3.75139800625001 
 N -4.09041739375000 3.95361606562500 3.66006000625001 
 N -4.74921139375000 1.27410706562500 7.59189600625001 
 N -4.70478139375000 4.92734306562500 7.37156400625001 
 S -5.60960739375000 0.838833065625003 6.21852000625000 
 S -5.56484439375000 4.32896306562500 6.08838200625001 
 S -2.64048739375000 0.903474065625003 3.34280300625001 
 S -2.52621639375000 4.29998006562500 3.16457300625001 
 S -3.16415739375000 1.56658006562500 7.36317800625001 
 S -3.12944739375000 5.31623406562500 7.11405000625001 
