16

 C -2.94937345000000 1.65850833750000 5.39849049062500 
 C -3.02190745000000 5.19199533749999 5.66231849062500 
 C -4.21930845000000 1.25382633750000 4.82479049062500 
 C -4.18939345000000 4.62968633750000 5.01350449062500 
 N -1.91845045000000 1.62610433750000 4.55152949062500 
 N -1.96104645000000 5.44434433750000 4.89507949062500 
 N -4.18975245000000 1.03830633750000 3.48826749062500 
 N -4.04051645000000 4.51126633750000 3.70158949062500 
 N -4.51790045000000 1.23313233750000 7.42188649062500 
 N -4.86613245000000 4.83747233750000 7.48286549062500 
 S -5.43344045000000 1.13352733750000 6.04296749062500 
 S -5.57536245000000 4.40080033750000 6.01918349062500 
 S -2.63292345000000 1.31495033750000 3.06411949062500 
 S -2.48124345000000 5.07714433749999 3.34800249062500 
 S -2.84721945000000 1.62122933750000 7.14655149062500 
 S -3.30137745000000 5.35550133749999 7.36144249062500 
