16

 C -2.92030453125000 1.43288445000000 5.30219532500000 
 C -3.20464853125000 5.11499045000000 5.49312732500000 
 C -4.26402053125000 1.05950845000000 4.73398432500000 
 C -4.36139953125000 4.68714545000000 4.74354532500000 
 N -1.99302653125000 1.60614545000000 4.38426232500000 
 N -2.14575053125000 5.40484445000000 4.74119432500000 
 N -4.23835653125000 0.919642449999999 3.39329132500000 
 N -4.15684553125000 4.52615045000000 3.43445232500000 
 N -4.51486153125000 1.14689245000000 7.33430432500000 
 N -5.03067153125000 4.76070845000000 7.26530232500000 
 S -5.46428453125000 0.872817449999999 6.00544732500000 
 S -5.71803953125000 4.21430145000000 5.79203432500000 
 S -2.65427553125000 1.30638945000000 2.88625532500000 
 S -2.60525553125000 5.12911745000000 3.16686032500000 
 S -2.97581953125000 1.58492645000000 6.97784732500000 
 S -3.41855253125000 5.23740945000000 7.19655432500000 
