16

 C -3.05736730625000 1.66708086250000 5.45627138125000 
 C -3.51203030625000 4.98842786250000 5.10789838125000 
 C -4.06717630625000 0.852669862500001 4.93321638125000 
 C -4.63603630625000 4.34341686250000 4.49741538125000 
 N -2.17967330625000 2.02983286250000 4.54332638125000 
 N -2.53733130625000 5.28989086250000 4.24957838125000 
 N -3.92679830625000 0.381241862500001 3.67395738125000 
 N -4.35969830625000 3.89157186250000 3.27256038125000 
 N -4.71497230625000 1.21211986250000 7.31332538125000 
 N -5.44628030625000 4.89377986250000 6.86541938125000 
 S -5.43463330625000 0.685324862500001 5.92293238125000 
 S -6.04733630625000 4.03295286250000 5.51560638125000 
 S -2.46662230625000 1.06762986250000 3.22338838125000 
 S -2.93664930625000 4.49448286250000 2.82007138125000 
 S -3.40628730625000 2.19407686250000 7.02056038125000 
 S -3.86733830625000 5.32667286250000 6.77581138125000 
