16

 C -3.11428600312500 1.51184529687500 5.69668737812500 
 C -3.00567200312500 4.60917829687500 5.47367537812500 
 C -4.41091000312500 1.12261129687500 5.07203537812500 
 C -4.22911300312500 4.18817629687500 4.86546637812500 
 N -2.10176500312500 1.61222429687500 4.84782637812500 
 N -2.01976600312500 4.80340129687500 4.55343337812500 
 N -4.24810700312500 0.847241296874999 3.78093837812500 
 N -4.12250600312500 3.89473629687500 3.57422937812500 
 N -4.82253400312500 1.40625529687500 7.64348637812500 
 N -4.88840300312500 4.48479929687500 7.33973637812500 
 S -5.66618400312500 1.10798129687500 6.24721837812500 
 S -5.58721400312500 4.13705329687500 5.88577637812500 
 S -2.63070500312500 1.18573529687500 3.39365537812500 
 S -2.61154300312500 4.29855729687500 3.08693937812500 
 S -3.21137200312500 1.70025329687500 7.42560137812500 
 S -3.26481800312500 4.63116929687500 7.20759437812500 
