16

 C -3.36295978437500 1.24072442499999 5.44765465937500 
 C -3.19121778437500 5.00673042499999 5.30833865937500 
 C -4.48278878437500 0.676773424999994 4.74347965937500 
 C -4.44517278437499 4.61944842499999 4.64127365937500 
 N -2.30816778437500 1.34755442499999 4.65256865937500 
 N -2.10728978437500 5.02131842499999 4.58837265937500 
 N -4.35325878437500 0.415228424999993 3.45383865937500 
 N -4.21641578437499 4.30249542499999 3.38523665937500 
 N -5.30684278437499 1.10648842499999 7.13875365937500 
 N -4.99552778437500 5.00732442499999 7.18860465937500 
 S -5.89322178437499 0.445788424999994 5.74302065937500 
 S -5.81411178437499 4.80921342499999 5.77621365937500 
 S -2.82504178437500 0.906464424999993 3.07109065937500 
 S -2.60702078437500 4.56840542499999 3.03825165937500 
 S -3.71310478437500 1.48369442499999 7.12932865937500 
 S -3.29976778437500 5.54755742499999 6.91952265937500 
