16

 C -3.41228337187500 1.24002477187500 5.30467352187500 
 C -3.15381737187500 5.12259277187500 5.35110852187500 
 C -4.60217237187500 0.713790771875000 4.65099552187500 
 C -4.39002237187500 4.70771777187500 4.82644652187500 
 N -2.40347637187500 1.43830677187500 4.50943052187500 
 N -2.19142637187500 5.12687177187500 4.41584152187500 
 N -4.39771537187500 0.395986771875000 3.37079952187500 
 N -4.39642637187500 4.35079577187500 3.53897052187500 
 N -5.06426837187500 0.893577771874999 7.22935652187500 
 N -4.86290237187500 4.78234077187500 7.21739652187500 
 S -5.98247737187500 0.718408771875001 5.79168052187500 
 S -5.71248737187500 4.71908977187500 5.85408952187500 
 S -2.75963437187500 0.806764771875000 3.03087152187500 
 S -2.88305237187500 4.57818177187500 2.95370052187500 
 S -3.43428437187500 1.44834377187500 6.94273752187500 
 S -3.33229337187500 5.43476777187500 7.10354852187500 
