16

 C -2.87113348437500 1.56431850000000 5.82650602500000 
 C -3.37084548437500 5.38264250000000 5.53571302500000 
 C -4.11597948437500 1.36159750000000 5.19871902500000 
 C -4.57575648437500 4.93067450000000 4.93136002500000 
 N -1.87389048437500 1.63450750000000 4.97566302500000 
 N -2.41533948437500 5.64942850000000 4.67750502500000 
 N -4.09963148437500 1.35561450000000 3.87827402500000 
 N -4.53002748437500 4.78841550000000 3.60637502500000 
 N -4.58207748437500 1.40709150000000 7.69827302500000 
 N -5.05848348437500 5.05997350000000 7.43299602500000 
 S -5.44708748437500 1.41297850000000 6.28089502500000 
 S -5.85365948437500 4.71103850000000 6.01784502500000 
 S -2.46525748437500 1.52271350000000 3.45290302500000 
 S -3.02352348437500 5.20830550000000 3.15993202500000 
 S -2.90110148437500 1.55135050000000 7.50535102500000 
 S -3.47798648437500 5.44984550000000 7.27465802500000 
