16

 C -3.18931221250000 1.41919048125000 5.65891345625000 
 C -3.49103221250000 5.25548448125000 5.48645645625000 
 C -4.34165021250000 0.842547481250002 5.03860045625000 
 C -4.56785121250000 4.61456448125000 4.79670345625000 
 N -2.17729821250000 1.66164248125000 4.83992245625000 
 N -2.49060221250000 5.53765748125000 4.60626245625000 
 N -4.17226921250000 0.535446481250002 3.73928245625000 
 N -4.34248021250000 4.28739448125000 3.49899745625000 
 N -4.84630221250000 0.799354481250002 7.63026545625000 
 N -5.34851821250000 4.97243248125000 7.20237345625000 
 S -5.61075721250000 0.392014481250002 6.17456245625000 
 S -5.85873321250000 4.11887048125000 5.90748545625000 
 S -2.76594421250000 1.18588048125000 3.27935845625000 
 S -2.86114621250000 4.95746548125000 3.10850345625000 
 S -3.42703221250000 1.59489848125000 7.37788145625000 
 S -3.87189421250000 5.69442648125000 7.16358345625000 
