16

 C -3.24143745625000 1.45999225625000 5.63183808125000 
 C -3.54648345625000 5.33231225625000 5.51425408125000 
 C -4.40572045625000 0.828532256250002 5.07461608125000 
 C -4.56701745625000 4.55783325625000 4.89133808125000 
 N -2.28860045625000 1.77953825625000 4.75934908125000 
 N -2.46980045625000 5.60421525625000 4.72503708125000 
 N -4.34932845625000 0.740775256250002 3.74386208125000 
 N -4.48015545625000 4.47434625625000 3.54677808125000 
 N -4.87859145625000 0.894023256250001 7.57965308125000 
 N -5.38642245625000 4.96101625625000 7.28715508125000 
 S -5.69297745625000 0.480648256250002 6.18144908125000 
 S -5.91890945625000 4.10801925625000 5.90833708125000 
 S -2.78740245625000 1.26066725625000 3.28206808125000 
 S -2.95713645625000 5.02120925625000 3.21216508125000 
 S -3.36524645625000 1.55730725625000 7.39171708125000 
 S -3.82199245625000 5.58728525625000 7.12630408125000 
