16

 C -2.67058252187500 1.63077087500000 5.34183165625000 
 C -3.39429152187500 5.09387187500000 5.62022465625000 
 C -3.75508452187500 0.885603875000003 4.80993665625000 
 C -4.46506252187500 4.45388787500000 4.89732665625000 
 N -1.84667652187500 2.04246487500000 4.42233565625000 
 N -2.36382052187500 5.38412487500000 4.83751365625000 
 N -3.78896852187500 0.750753875000003 3.51203765625000 
 N -4.40345652187500 4.52879887500000 3.58487765625000 
 N -4.18474852187500 1.04253587500000 7.30290565625000 
 N -5.01598752187500 4.39063187500000 7.40772065625000 
 S -4.99933352187500 0.564425875000003 5.93084065625000 
 S -5.79512152187500 4.03312287500000 5.95593665625000 
 S -2.45644052187500 1.53612087500000 2.94426265625000 
 S -2.88045252187500 5.07643487500000 3.27698565625000 
 S -2.81629752187500 1.95402787500000 7.08670065625000 
 S -3.55034152187500 5.07585387500000 7.29262565625000 
