16

 C -3.41605586875000 1.74767068750000 5.56643362500000 
 C -3.04530986875000 5.16439268750000 5.59408562500000 
 C -4.64204186875000 1.30746268750000 4.91183862500000 
 C -4.36386686875000 4.98809168750000 4.99983462500000 
 N -2.35590986875000 1.83478068750000 4.76139062500000 
 N -2.01690986875000 5.19210468750000 4.75938862500000 
 N -4.53596486875000 1.05279968750000 3.62884062500000 
 N -4.34101886875000 4.82525668750000 3.66507662500000 
 N -5.23620286875000 1.46067668750000 7.39191462500000 
 N -4.60164486875000 5.17932068750000 7.60040962500000 
 S -5.98122186875000 1.01500168750000 5.94436662500000 
 S -5.56946986875000 4.94671768750000 6.31426362500000 
 S -2.97742386875000 1.49799768750000 3.19232962500000 
 S -2.70226886875000 4.96158468750000 3.26833162500000 
 S -3.62269186875000 1.77979768750000 7.36232062500000 
 S -2.99241186875000 5.26851968750000 7.33135062500000 
