16

 C -3.03026982500000 1.62511850937500 5.59595837500000 
 C -3.00848982500000 5.27930950937500 5.67487837500000 
 C -4.30793982500000 1.37080550937500 5.01570837500000 
 C -4.21760782500000 4.90374050937500 5.00782937500000 
 N -2.10669382500000 1.81865050937500 4.64401737500000 
 N -1.99221582500000 5.51561650937500 4.83910137500000 
 N -4.32848382500000 1.18499550937500 3.67434037500000 
 N -4.11588082500000 4.78321850937500 3.70295237500000 
 N -4.69846282500000 1.47556450937500 7.53958637500000 
 N -4.90601182500000 4.84747750937500 7.45339037500000 
 S -5.61300782500000 1.28994150937500 6.14913737500000 
 S -5.61366082500000 4.57433850937500 5.99562237500000 
 S -2.80723382500000 1.61828650937500 3.16766637500000 
 S -2.61211282500000 5.16087450937500 3.29140137500000 
 S -3.07747482500000 1.74581650937500 7.34940037500000 
 S -3.31405882500000 5.25842850937500 7.39938337500000 
