16

 C -3.11407963750000 1.36897032187500 5.54263855000000 
 C -3.49600163750000 5.13442132187500 5.53900755000000 
 C -4.34011463750000 0.944357321875001 4.85538255000000 
 C -4.65575763750000 4.47408532187500 4.93415655000000 
 N -2.07651063750000 1.77293632187500 4.75661555000000 
 N -2.53117863750000 5.33100932187500 4.67255255000000 
 N -4.20280163750000 0.915023321875000 3.51421955000000 
 N -4.59812863750000 4.25692832187500 3.62449755000000 
 N -5.00971563750000 1.15043232187500 7.33475255000000 
 N -5.14601463750000 4.85251432187500 7.41271855000000 
 S -5.70477263750000 0.717154321875000 5.86612455000000 
 S -5.91391863750000 4.16779932187500 6.05552755000000 
 S -2.67865163750000 1.47629832187500 3.22386555000000 
 S -3.11976063750000 4.89802232187500 3.19054955000000 
 S -3.43671363750000 1.66155632187500 7.19340255000000 
 S -3.58259863750000 5.35344032187500 7.24024455000000 
