16

 C -3.12556520000000 1.44757683125000 5.58539346562500 
 C -3.31811320000000 5.06986483125000 5.27545546562500 
 C -4.23386320000000 1.06058483125000 4.78682946562500 
 C -4.41531020000000 4.37452983125000 4.61814346562500 
 N -1.97823520000000 1.64558183125000 4.90963746562500 
 N -2.25024420000000 5.24524183125000 4.49370446562500 
 N -3.92682020000000 0.781609831250003 3.50616846562500 
 N -4.08902720000000 3.91897083125000 3.39233546562500 
 N -5.09391020000000 1.22429083125000 7.25509846562500 
 N -5.29815920000000 5.34422083125000 6.82225146562500 
 S -5.72900220000000 0.950504831250003 5.77832146562500 
 S -5.86610920000000 4.39287983125000 5.59974946562500 
 S -2.37332020000000 1.19747783125000 3.32910946562500 
 S -2.58743520000000 4.41493583125000 3.10977246562500 
 S -3.46695520000000 1.64493883125000 7.26195646562500 
 S -3.68747920000000 5.65504883125000 6.86242146562500 
