16

 C -3.21389232812500 1.49594536875000 5.39442431875000 
 C -3.37278432812500 5.27960936875000 5.31765531875000 
 C -4.39087832812500 0.714134368749998 4.95698131875000 
 C -4.46863132812500 4.61672436875000 4.66680931875000 
 N -2.25254032812500 1.72141736875000 4.48412631875000 
 N -2.34773432812500 5.62031636875000 4.53559931875000 
 N -4.34186532812500 0.423938368749998 3.64024331875000 
 N -4.29526132812500 4.49949636875000 3.36497431875000 
 N -4.71711632812500 1.18418636875000 7.41272031875000 
 N -5.13223132812500 4.76753036875000 7.23304031875000 
 S -5.56471732812500 0.529551368749998 6.16365631875000 
 S -5.76724232812500 4.07592536875000 5.84453431875000 
 S -2.92135832812500 0.969498368749997 3.12526331875000 
 S -2.81471132812500 5.14546836875000 2.99715631875000 
 S -3.28990732812500 1.94168636875000 7.05015731875000 
 S -3.64136032812500 5.55352336875000 7.02872831875000 
