16

 C -3.21322804687500 0.891684728125001 5.52081694687500 
 C -3.23630704687500 4.86383072812500 5.68406194687500 
 C -4.40029104687500 0.622970728125001 4.72834894687500 
 C -4.50318604687500 4.46854672812500 5.06431994687500 
 N -2.22815804687500 1.35056472812500 4.76317194687500 
 N -2.21493604687500 4.93518072812500 4.81941894687500 
 N -4.27830804687500 0.814998728125000 3.43276194687500 
 N -4.44420404687500 4.37252072812500 3.74522094687500 
 N -5.08804204687500 0.559105728125001 7.15879194687500 
 N -4.96002304687500 4.92092672812500 7.57416194687500 
 S -5.76289104687500 0.173315728125001 5.62832694687500 
 S -5.79083504687500 4.31511272812500 6.22111494687500 
 S -2.70412404687500 1.34410872812500 3.16591694687500 
 S -2.88376004687500 4.72885772812500 3.31218194687500 
 S -3.43495104687500 0.790497728125001 7.23547094687500 
 S -3.25604104687500 4.98951072812500 7.42172994687500 
