16

 C -3.22017122812500 1.48394280625000 5.56842494375000 
 C -3.14116722812500 5.34217980625000 5.64078394375000 
 C -4.34258222812500 1.06064880625000 4.77897594375000 
 C -4.34873422812500 4.98786580625000 4.94879794375000 
 N -2.16652922812500 1.79598880625000 4.80739394375000 
 N -2.07482022812500 5.41495580625000 4.83531094375000 
 N -4.17432622812500 1.20174180625000 3.46420294375000 
 N -4.24900722812500 4.83392280625000 3.62189294375000 
 N -5.00563922812500 0.652183806249999 7.27275794375000 
 N -4.79161422812500 5.04105180625000 7.48442094375000 
 S -5.77419122812500 0.639651806249999 5.74644894375000 
 S -5.66305622812500 5.01581280625000 6.08392594375000 
 S -2.58875622812500 1.63887880625000 3.20705294375000 
 S -2.58936322812500 5.06907580625000 3.32740194375000 
 S -3.52665622812500 1.45041480625000 7.28053394375000 
 S -3.16457722812500 5.58839280625000 7.39696394375000 
