16

 C -3.18855849687500 1.32713774687500 5.73981043437500 
 C -3.23295249687500 5.35605074687500 5.56364443437500 
 C -4.51164149687500 1.09132974687500 5.08174143437500 
 C -4.42945049687500 4.86871174687500 4.89230743437500 
 N -2.17473149687500 1.35070274687500 4.90098543437500 
 N -2.24427149687500 5.64603974687500 4.71710843437500 
 N -4.48351449687500 0.952742746875002 3.75602143437500 
 N -4.21916849687500 4.58152874687500 3.59156043437500 
 N -4.96351249687500 1.34964074687500 7.61633143437500 
 N -4.95937749687500 5.04151474687500 7.39548143437500 
 S -5.81115749687500 1.08306874687500 6.16014943437500 
 S -5.69349049687500 4.51435874687500 5.95973143437500 
 S -2.88111849687500 0.971294746875001 3.40581843437500 
 S -2.67563749687500 5.06018174687500 3.21845943437500 
 S -3.29586749687500 1.43554374687500 7.41813043437500 
 S -3.29543349687500 5.42356674687500 7.33377443437500 
