16

 C -3.20184631250000 1.17425439687500 5.53520416875000 
 C -3.15661131250000 5.43668039687500 5.58306516875000 
 C -4.41941431250000 0.784936396874995 4.84179816875000 
 C -4.27328431250000 4.90594539687500 4.87087216875000 
 N -2.17700331250000 1.42431939687499 4.73474616875000 
 N -2.15353431250000 5.79827739687499 4.79276116875000 
 N -4.32270031250000 0.776037396874995 3.51648016875000 
 N -4.13790731250000 4.91695939687499 3.51254716875000 
 N -4.93601031250000 1.00828439687499 7.36115316875000 
 N -4.86759631250000 4.78649039687499 7.45998516875000 
 S -5.73488031250000 0.479879396874995 6.02905416875000 
 S -5.49426331250000 4.36015439687500 5.96002116875000 
 S -2.74856731250000 1.02400339687499 3.15996216875000 
 S -2.64371531250000 5.57165639687500 3.22219316875000 
 S -3.29911631250000 1.26134839687500 7.23550416875000 
 S -3.35710931250000 5.52067939687500 7.33145116875000 
