16

 C -2.98344926250000 1.46430190312500 5.27090169375000 
 C -3.08009826250000 5.18706690312500 5.48058869375000 
 C -4.17058026250000 0.899047903124998 4.73193669375000 
 C -4.27020926250000 4.62683690312500 4.93393469375000 
 N -1.91222326250000 1.59733890312500 4.46521769375000 
 N -2.10087726250000 5.32144690312500 4.61371669375000 
 N -3.93687726250000 0.665029903124998 3.44239569375000 
 N -4.10794926250000 4.26601790312500 3.66284769375000 
 N -4.43822326250000 1.12264490312500 7.33140369375000 
 N -4.87878826250000 4.92778290312500 7.40057669375000 
 S -5.36486926250000 0.649603903124998 6.07188169375000 
 S -5.59520826250000 4.33571790312500 5.94218769375000 
 S -2.47341226250000 1.20612490312500 2.97505169375000 
 S -2.63256526250000 4.67172290312500 3.17519069375000 
 S -2.97527826250000 1.75590090312500 6.99569369375000 
 S -3.30122826250000 5.44347890312500 7.20106669375000 
