16

 C -3.16520635312500 1.30262797500001 5.87432190937500 
 C -2.98384135312500 4.87316097500001 5.65983190937500 
 C -4.47232435312500 0.873359975000006 5.34434590937500 
 C -4.22617435312500 4.43986497500001 4.99912190937500 
 N -2.26965735312500 1.57753997500001 4.91295390937500 
 N -1.98642435312500 5.26487997500001 4.91474090937500 
 N -4.43244235312500 0.685266975000007 4.00707590937500 
 N -4.05678635312500 4.41726097500001 3.67449790937500 
 N -4.88509735312500 1.34865997500001 7.79666390937500 
 N -4.79360035312500 4.84153097500001 7.54922990937500 
 S -5.74768035312500 1.11599097500001 6.43737690937500 
 S -5.65183735312500 4.43383397500001 6.06716290937500 
 S -2.92698235312500 1.04167197500001 3.47378990937500 
 S -2.53889335312500 5.02173197500001 3.36005290937500 
 S -3.27666335312500 1.77186297500001 7.64381490937500 
 S -3.20330835312500 5.15951497500001 7.37851190937500 
