16

 C -2.89703487500000 1.67931003437500 5.24632608437500 
 C -3.32823787500000 5.04096303437500 5.58226008437500 
 C -4.05520387500000 1.02835703437500 4.72470708437500 
 C -4.48401987500000 4.50954003437500 4.91726908437500 
 N -1.89836187500000 1.91234903437500 4.41688908437500 
 N -2.29122187500000 5.27704403437500 4.79703708437500 
 N -4.04754187500000 0.843973034374998 3.42136408437500 
 N -4.39716787500000 4.50218903437500 3.60448308437500 
 N -4.32653887500000 1.04797503437500 7.31317208437500 
 N -5.04766087500000 4.50394403437500 7.41743508437500 
 S -5.25237187500000 0.601601034374998 6.02613208437500 
 S -5.69634887500000 4.03313203437500 5.97116208437500 
 S -2.52917787500000 1.34345203437500 2.97714208437500 
 S -2.86855587500000 5.06844903437500 3.23956008437500 
 S -2.85041687500000 1.71339303437500 6.97083408437500 
 S -3.43247387500000 4.92612203437500 7.34430308437500 
