16

 C -3.06884863125000 1.24416443437500 5.48839802500000 
 C -2.92644063125000 5.26701943437500 5.48560902500000 
 C -4.24939963125000 0.892671434375002 4.69572402500000 
 C -4.17628463125000 4.94052343437500 4.86935202500000 
 N -1.92408063125000 1.36429743437500 4.87074502500000 
 N -1.88160963125000 5.21231343437500 4.65648402500000 
 N -3.90449363125000 0.845501434375002 3.41896202500000 
 N -4.10727463125000 4.67338443437500 3.54289802500000 
 N -4.92008363125000 1.30314243437500 7.15314502500000 
 N -4.79664163125000 5.20363443437500 7.39319702500000 
 S -5.61588963125000 0.704031434375002 5.83838502500000 
 S -5.54990763125000 4.90402643437500 5.87441702500000 
 S -2.28912763125000 1.03439443437500 3.27505802500000 
 S -2.54901063125000 4.85800543437500 3.12093802500000 
 S -3.28406063125000 1.45413343437500 7.19254002500000 
 S -3.07466863125000 5.48343943437500 7.28634302500000 
