16

 C -3.01770550625000 1.46616370000000 5.33392488125000 
 C -3.17533850625000 5.18705270000000 5.65286688125000 
 C -4.24902250625000 1.04708170000000 4.77136988125000 
 C -4.42588850625000 4.75113870000000 4.99932788125000 
 N -2.04520550625000 1.46561070000000 4.39955088125000 
 N -2.14662050625000 5.41088670000000 4.85296288125000 
 N -4.27567050625000 0.582175700000002 3.50193088125000 
 N -4.25130650625000 4.53614070000000 3.66984088125000 
 N -4.83668850625000 1.43508070000000 7.28065088125000 
 N -4.78106650625000 4.79846470000000 7.58918988125000 
 S -5.58699350625000 1.11798270000000 5.84136388125000 
 S -5.73363950625000 4.68279770000000 6.24413188125000 
 S -2.69899850625000 0.720631700000002 3.09421588125000 
 S -2.63504850625000 4.96706470000000 3.38488288125000 
 S -3.15993150625000 1.66353270000000 7.08375288125000 
 S -3.22107050625000 5.30470470000000 7.41072488125000 
