16

 C -2.94985921250000 1.39818607812500 5.52841778750000 
 C -3.10527721250000 5.24892307812500 5.14004478750000 
 C -4.14973721250000 0.980533078125000 4.86638878750000 
 C -4.33914121250000 4.71229207812500 4.61192178750000 
 N -1.77990121250000 1.35178907812500 4.81054978750000 
 N -2.07492921250000 5.31450507812500 4.32198978750000 
 N -3.93796521250000 0.689077078125001 3.60691178750000 
 N -4.30629921250000 4.52773407812500 3.31452478750000 
 N -4.91702121250000 1.48842307812500 7.20805378750000 
 N -4.72030421250000 4.87425207812500 7.11477978750000 
 S -5.61588821250000 0.863838078125000 5.83806478750000 
 S -5.66353221250000 4.80832707812500 5.74289078750000 
 S -2.28747821250000 0.970563078125001 3.27851378750000 
 S -2.72536021250000 4.91716807812500 2.85562978750000 
 S -3.24458221250000 1.59467807812500 7.23976178750000 
 S -3.15055021250000 5.36428407812500 6.85005378750000 
