16

 C -3.42117691562500 1.24594136250000 5.25800832187500 
 C -3.17115691562500 5.12908636250000 5.34784532187500 
 C -4.60862691562500 0.705707362499997 4.65082832187500 
 C -4.42581591562500 4.71844536250000 4.78523232187500 
 N -2.36660991562500 1.46351836250000 4.45467332187500 
 N -2.19366891562500 5.16365436250000 4.41634832187500 
 N -4.41074691562500 0.435879362499998 3.36148632187500 
 N -4.41882991562500 4.36914836250000 3.53402932187500 
 N -4.99515391562500 0.891735362499998 7.21068632187500 
 N -4.89586791562500 4.76105936250000 7.28249632187500 
 S -5.95020291562500 0.760938362499998 5.78802332187500 
 S -5.73658691562500 4.67871636250000 5.89854132187500 
 S -2.78467891562500 0.771460362499998 2.99960432187500 
 S -2.90938991562500 4.59196336250000 2.94426532187500 
 S -3.40848291562500 1.44571036250000 6.95836232187500 
 S -3.27636291562500 5.41695936250000 7.14743232187500 
