16

 C -2.82178276875000 1.37623575937500 5.68575371250000 
 C -3.07059076875000 4.78797875937500 5.44439371250000 
 C -3.95312876875000 0.677476759374999 5.18943671250000 
 C -4.29697876875000 4.33772575937500 4.86093471250000 
 N -1.78968576875000 1.47234575937500 4.85078371250000 
 N -2.03956476875000 4.75065475937500 4.58374071250000 
 N -3.84425676875000 0.278169759375000 3.91353371250000 
 N -4.23670676875000 4.10802375937500 3.53594571250000 
 N -4.70133176875000 1.53430975937500 7.57360271250000 
 N -4.81930176875000 5.06497075937500 7.29080371250000 
 S -5.38541876875000 0.863101759375000 6.26853271250000 
 S -5.66957476875000 4.64426075937500 5.94854371250000 
 S -2.35141676875000 0.810866759375000 3.36400671250000 
 S -2.66433876875000 4.47028375937500 3.06780571250000 
 S -3.07791076875000 1.87776175937500 7.38343471250000 
 S -3.24405576875000 5.36045675937500 7.09055771250000 
