16

 C -2.97701019687500 1.41935606250000 5.39026045000000 
 C -3.25041619687500 5.22530206250000 5.97525245000000 
 C -4.14335919687500 0.968226062499999 4.74555145000000 
 C -4.45689719687500 4.87259406250000 5.22277245000000 
 N -1.96716419687500 1.62903306250000 4.54707645000000 
 N -2.15277919687500 5.42277806250000 5.29305445000000 
 N -4.06903019687500 0.861315062499999 3.41979345000000 
 N -4.17648119687500 4.78388606250000 3.89731245000000 
 N -4.85668119687500 1.21379506250000 7.18811245000000 
 N -5.02198019687500 5.04311206250000 7.75146645000000 
 S -5.51488219687500 0.674263062499999 5.73730645000000 
 S -5.81635019687500 4.82645806250000 6.30809645000000 
 S -2.53475419687500 1.25367506250000 2.95389045000000 
 S -2.60021619687500 5.13765206250000 3.68290145000000 
 S -3.24609519687500 1.73252106250000 7.09401945000000 
 S -3.45730719687500 5.53758006250000 7.63020645000000 
