16

 C -3.19598936562500 1.48029503750000 5.61335760312500 
 C -3.50862236562500 5.29895303750000 5.46551860312500 
 C -4.40025536562500 0.831578037500000 5.07916760312500 
 C -4.58159036562500 4.57119403750000 4.87355460312500 
 N -2.24230136562500 1.75283903750000 4.75023960312500 
 N -2.46596636562500 5.60445303750000 4.70211160312500 
 N -4.32286936562500 0.691638037500000 3.76169760312500 
 N -4.46816236562500 4.45194603750000 3.55726560312500 
 N -4.89708336562500 0.852998037500000 7.58265360312500 
 N -5.38320536562500 4.97477403750000 7.27337260312500 
 S -5.66992136562500 0.462825037500000 6.20407360312500 
 S -5.91080136562500 4.10042103750000 5.89776860312500 
 S -2.77685236562500 1.24840303750000 3.28197860312500 
 S -2.93805036562500 5.00401103750000 3.19419660312500 
 S -3.39692836562500 1.55758103750000 7.38516460312500 
 S -3.84065736562500 5.61194203750000 7.13974760312500 
