16

 C -3.09075899062500 1.63893005000000 5.45980035625000 
 C -3.61098899062500 5.01399005000000 5.05603435625000 
 C -4.13286099062500 0.754395050000002 4.92616735625000 
 C -4.70062099062500 4.27606905000000 4.45397335625000 
 N -2.23467799062500 2.01611905000000 4.52882635625000 
 N -2.56576199062500 5.28162205000000 4.27050035625000 
 N -3.92355199062500 0.357236050000002 3.69597535625000 
 N -4.44262599062500 3.90665305000000 3.21504035625000 
 N -4.78455199062500 1.26936005000000 7.37468835625000 
 N -5.47484899062500 4.86430405000000 6.88768235625000 
 S -5.42248699062500 0.637983050000002 5.97247335625000 
 S -6.01526199062500 3.99174005000000 5.51914535625000 
 S -2.50962799062500 1.05521705000000 3.17397735625000 
 S -2.93307699062500 4.53671105000000 2.79329835625000 
 S -3.40729499062500 2.18507405000000 7.10199435625000 
 S -3.83704099062500 5.25570505000000 6.73853635625000 
