16

 C -3.22354398437500 1.18948385625000 5.51443584375000 
 C -2.94125498437500 5.13368985625000 5.44093584375000 
 C -4.47915398437500 0.737035856249999 5.05789884375000 
 C -4.15444998437500 4.90642485625000 4.71032384375000 
 N -2.30156798437500 1.32822185625000 4.54007784375000 
 N -1.84381798437500 5.23219185625000 4.69093384375000 
 N -4.58690798437500 0.597540856250000 3.73021984375000 
 N -3.99593898437500 4.86122885625000 3.40216384375000 
 N -4.83178998437500 1.02691885625000 7.61194084375000 
 N -4.81825098437500 4.81979685625000 7.25024084375000 
 S -5.74204698437500 0.763766856250000 6.22314884375000 
 S -5.52005898437500 4.63002885625000 5.70720784375000 
 S -3.07904598437500 0.944635856250000 3.09543784375000 
 S -2.36511798437500 5.07072385625000 3.11366084375000 
 S -3.25817398437500 1.33595785625000 7.26379484375000 
 S -3.15888298437500 5.10301085625000 7.23653784375000 
