16

 C -3.17205005312500 1.42284992812500 5.56273252812500 
 C -2.99691705312500 5.31027792812500 5.88100752812500 
 C -4.33591805312500 0.956634928125003 4.90515452812500 
 C -4.14975105312500 4.85858792812500 5.12699152812500 
 N -2.10891705312500 1.69333092812500 4.78460952812500 
 N -1.98166305312500 5.56265492812500 5.07189152812500 
 N -4.19362205312500 0.973090928125003 3.57568552812500 
 N -3.97022605312500 4.65765892812500 3.83024152812500 
 N -4.91288605312500 1.05193192812500 7.48248052812500 
 N -4.81333605312500 4.90569792812500 7.60713952812500 
 S -5.67514105312500 0.712266928125002 6.02985452812500 
 S -5.55813105312500 4.79677392812500 6.16496952812500 
 S -2.58447905312500 1.32482392812500 3.28446152812500 
 S -2.40960805312500 5.08941392812500 3.55821452812500 
 S -3.31433605312500 1.53981892812500 7.31873152812500 
 S -3.20884205312500 5.28461392812500 7.65673952812500 
