16

 C -3.24947804375000 1.30794343437500 5.51630125312500 
 C -3.22617604375000 5.13254043437500 5.36004725312500 
 C -4.52420904375000 1.15709543437500 4.83904325312500 
 C -4.48539504375000 4.69211443437500 4.76851025312500 
 N -2.11351204375000 1.21783743437500 4.78064625312500 
 N -2.19446204375000 4.96499243437500 4.53297525312500 
 N -4.38167404375000 0.924090434374999 3.53027025312500 
 N -4.43565104375000 4.31171943437500 3.47219225312500 
 N -5.05529504375000 1.30600243437500 7.33264225312500 
 N -5.01204304375000 4.97358043437500 7.22044325312500 
 S -5.90768004375000 1.23095143437500 5.92143725312500 
 S -5.76887004375000 4.48098043437500 5.86541125312500 
 S -2.74185604375000 0.950635434374998 3.28163625312500 
 S -2.81102904375000 4.44363043437500 3.12723725312500 
 S -3.38919804375000 1.39305643437500 7.24801425312500 
 S -3.46886504375000 5.54216143437500 7.03776725312500 
