16

 C -3.18220726875000 1.41669055000000 5.29638018750000 
 C -3.15564026875000 5.25023155000000 5.54323418750000 
 C -4.35833026875000 0.972918550000000 4.71608318750000 
 C -4.35934626875000 4.76516855000000 4.96095618750000 
 N -2.27161226875000 1.81387155000000 4.44672518750000 
 N -2.19612426875000 5.47277755000000 4.65210318750000 
 N -4.32552626875000 0.960069550000001 3.41172118750000 
 N -4.29542326875000 4.59658255000000 3.62716518750000 
 N -4.74217926875000 0.618627550000000 7.12869318750000 
 N -4.76973026875000 4.96345155000000 7.54758518750000 
 S -5.60926726875000 0.358251550000000 5.73432118750000 
 S -5.59285826875000 4.51219755000000 6.19581218750000 
 S -2.86639126875000 1.55265055000000 2.91847918750000 
 S -2.77302626875000 5.00888555000000 3.17953518750000 
 S -3.29068326875000 1.42285355000000 7.05519018750000 
 S -3.23459726875000 5.55014655000000 7.24969018750000 
