16

 C -3.36336851250000 1.49279473750000 5.52612455312500 
 C -3.11788851250000 5.67569673750000 5.63327555312500 
 C -4.47995851250000 0.910561737499999 4.84072855312500 
 C -4.17464751250000 4.98966273750000 4.91930955312500 
 N -2.28677151250000 1.61082373750000 4.71647255312500 
 N -2.18867451250000 6.09096973750000 4.79903155312500 
 N -4.27113851250000 0.498044737500000 3.59926755312500 
 N -3.99073351250000 4.77707473750000 3.63508755312500 
 N -5.10950251250000 1.20913973750000 7.29392455312500 
 N -4.89349551250000 5.07107573750000 7.45328355312500 
 S -5.86613451250000 0.773064737499999 5.86296455312500 
 S -5.45151651250000 4.55304573750000 5.99593655312500 
 S -2.70610651250000 0.995460737499999 3.20390555312500 
 S -2.56188551250000 5.46736973750000 3.28261955312500 
 S -3.49482351250000 1.51229273750000 7.21780955312500 
 S -3.33720551250000 5.78722873750000 7.37404255312500 
