16

 C -3.10263732500000 1.52976722500000 5.31712190312500 
 C -3.27078732500000 5.20929922500000 5.75691990312500 
 C -4.20003432500000 0.752556225000002 4.83069490312500 
 C -4.45003232500000 4.68442222500000 5.09076390312500 
 N -2.12357332500000 1.63349522500000 4.40097690312500 
 N -2.19291732500000 5.42629322500000 4.95114690312500 
 N -4.05978432500000 0.183898225000002 3.64174390312500 
 N -4.19257632500000 4.48275222500000 3.78683890312500 
 N -4.95026032500000 1.43755822500000 7.20184590312500 
 N -4.97121832500000 5.02560222500000 7.56240590312500 
 S -5.62988232500000 0.814212225000002 5.79691790312500 
 S -5.84863632500000 4.56797322500000 6.19718090312500 
 S -2.64828932500000 0.767202225000002 3.09035590312500 
 S -2.58479932500000 5.02535622500000 3.43800390312500 
 S -3.38194232500000 2.03717122500000 7.01783690312500 
 S -3.45659332500000 5.70703522500000 7.35704890312500 
