16

 C -3.40844442812500 1.42160130312500 5.52336303125000 
 C -2.97426542812500 5.13090630312500 5.83004603125000 
 C -4.61548442812500 1.12965130312500 4.82325803125000 
 C -4.30749342812500 4.93627430312500 5.25183903125000 
 N -2.33361842812500 1.58650030312500 4.76676303125000 
 N -2.04028342812500 5.22171530312500 4.89287603125000 
 N -4.49684542812500 1.21423030312500 3.49191603125000 
 N -4.35899342812500 4.86351730312500 3.95964303125000 
 N -5.11826342812500 1.24558530312500 7.34328703125000 
 N -4.74544642812500 5.17788830312500 7.74801003125000 
 S -5.91593742812500 0.784686303125001 5.98579803125000 
 S -5.60920442812500 5.00423730312500 6.37346003125000 
 S -2.86797542812500 1.58036230312500 3.18494403125000 
 S -2.86951342812500 5.01958430312500 3.37271303125000 
 S -3.53033842812500 1.70867330312500 7.15721703125000 
 S -3.06107342812500 5.34772330312500 7.61491003125000 
