16

 C -3.23954297500000 1.38982342500000 5.70352937500000 
 C -3.30963497500000 5.14669042500000 5.41405437500000 
 C -4.33647997500000 0.898832425000000 5.02326637500000 
 C -4.55465397500000 4.71747042500000 4.78310637500000 
 N -2.21946697500000 1.67413342500000 4.93632037500000 
 N -2.29277997500000 5.35360742500000 4.58483637500000 
 N -4.22612397500000 0.744782425000000 3.72862837500000 
 N -4.48618897500000 4.72586442500000 3.44046237500000 
 N -5.13444297500000 1.14838642500000 7.34639737500000 
 N -5.06363297500000 4.90374442500000 7.26869037500000 
 S -5.76018697500000 0.576055425000000 5.89610237500000 
 S -5.88626797500000 4.39404442500000 5.88840537500000 
 S -2.64352397500000 1.16091142500000 3.43415237500000 
 S -2.89047697500000 5.15945042500000 3.06309737500000 
 S -3.54669297500000 1.59553742500000 7.37245537500000 
 S -3.48129997500000 5.28202542500000 7.12271737500000 
