16

 C -3.15063111250000 1.55808904687500 5.46075328437500 
 C -3.19358311250000 5.25034104687500 5.94358428437500 
 C -4.32823511250000 1.07104004687500 4.84027528437500 
 C -4.47250511250000 4.99456604687500 5.29215128437500 
 N -2.20287111250000 1.91316604687500 4.57265028437500 
 N -2.16750911250000 5.32222404687500 5.15125628437500 
 N -4.27330511250000 1.01634204687500 3.50299128437500 
 N -4.28931511250000 4.87774804687500 3.99874528437500 
 N -4.96879711250000 0.974803046874998 7.25041228437500 
 N -4.80804411250000 5.12281304687500 7.88279928437500 
 S -5.68461111250000 0.689295046874999 5.79614428437500 
 S -5.81123211250000 4.96970604687500 6.50029028437500 
 S -2.77163211250000 1.40147404687500 3.07541828437500 
 S -2.68456611250000 5.04737004687500 3.61486628437500 
 S -3.39461911250000 1.43962404687500 7.24407928437500 
 S -3.18600111250000 5.38797804687500 7.63255328437500 
