16

 C -2.86107402187500 1.42338676562500 5.78022817812500 
 C -3.15734002187500 4.79037776562500 5.65097117812500 
 C -4.18196102187500 1.17192776562500 5.10342517812500 
 C -4.44419102187500 4.67579576562500 4.99546117812500 
 N -1.82971202187500 1.44328176562500 4.91843017812500 
 N -2.13735302187500 4.75932076562500 4.77217017812500 
 N -4.11264902187500 1.12572676562500 3.76060417812500 
 N -4.38297702187500 4.69795476562500 3.66639117812500 
 N -4.66069302187500 1.48419376562500 7.68331917812500 
 N -5.03585602187500 4.68806176562500 7.47085117812500 
 S -5.54589602187500 1.24756076562500 6.25535917812500 
 S -5.82894402187500 4.47668376562500 6.04971917812500 
 S -2.47775102187500 1.29441076562500 3.43651117812500 
 S -2.76475602187500 4.78266876562500 3.25006017812500 
 S -2.99321002187500 1.60928476562500 7.52166717812500 
 S -3.41011002187500 5.01720376562500 7.39156817812500 
