16

 C -3.44288335937500 1.52856196562500 5.49890796875000 
 C -3.03475335937500 5.13713396562500 5.41710896875000 
 C -4.44162035937500 0.687683965624998 4.93690496875000 
 C -4.24442035937500 4.76197996562500 4.73575096875000 
 N -2.41538535937500 1.83633996562500 4.68231996875000 
 N -1.89747035937500 5.18481996562500 4.69627696875000 
 N -4.12388935937500 0.210513965624997 3.73059796875000 
 N -4.00043835937500 4.47868096562500 3.40749396875000 
 N -5.23816935937500 0.869999965624998 7.37499896875000 
 N -4.84176535937500 4.98228796562500 7.19123496875000 
 S -5.80433735937500 0.281977965624998 5.85317396875000 
 S -5.64931535937500 4.97298096562500 5.81427596875000 
 S -2.77712635937500 0.968688965624998 3.31707796875000 
 S -2.33841935937500 4.76822296562500 3.22602296875000 
 S -3.85305335937500 1.77316696562500 7.22356396875000 
 S -3.27088535937500 5.47409996562500 7.07529896875000 
