16

 C -3.17148840625000 1.50780514687500 5.39310962500000 
 C -3.15295240625000 5.28053614687500 6.03905062500000 
 C -4.31083840625000 0.950775146875002 4.66896962500000 
 C -4.34920440625000 5.02792214687500 5.37207562500000 
 N -2.13437840625000 1.78136514687500 4.64308562500000 
 N -2.08762340625000 5.35116714687500 5.20187362500000 
 N -4.04235640625000 0.779300146875002 3.38885162500000 
 N -4.28052940625000 4.85693414687500 4.03573662500000 
 N -4.84965940625000 1.06596914687500 7.24853662500000 
 N -4.99227140625000 5.14289114687500 7.80158462500000 
 S -5.62784940625000 0.657368146875002 5.83571262500000 
 S -5.71388440625000 4.88669314687500 6.35274662500000 
 S -2.56371740625000 1.45180214687500 3.05513062500000 
 S -2.75004440625000 5.06562414687500 3.63289062500000 
 S -3.22585640625000 1.49314514687500 7.07572862500000 
 S -3.41474440625000 5.44129014687500 7.77808062500000 
