16

 C -3.21463673125000 1.55849759687500 5.37186326250000 
 C -3.04931773125000 5.04582359687500 5.41974226250000 
 C -4.38255673125000 1.12729259687500 4.67946826250000 
 C -4.31530373125000 4.90893859687500 4.71614426250000 
 N -2.21418473125000 1.77998159687500 4.52913026250000 
 N -1.99607273125000 5.13302959687500 4.60006426250000 
 N -4.26359473125000 0.933823596874999 3.36553226250000 
 N -4.26667373125000 4.98612959687500 3.39128526250000 
 N -5.02055373125000 1.17448659687500 7.14598726250000 
 N -4.81484673125000 4.96247759687500 7.26420426250000 
 S -5.75196073125000 0.832023596875000 5.68913626250000 
 S -5.60848373125000 4.76792959687500 5.83631026250000 
 S -2.72263673125000 1.52366359687500 2.98752126250000 
 S -2.62361673125000 5.08261159687500 3.05825726250000 
 S -3.35433473125000 1.60840759687500 7.11784626250000 
 S -3.22955173125000 4.82761859687500 7.20621026250000 
