16

 C -3.17446888125000 1.12190054687500 5.48150727187500 
 C -2.85791388125000 5.22635754687500 5.51991227187500 
 C -4.51113388125000 0.743691546875002 4.99821927187500 
 C -4.05693688125000 4.90317254687500 4.75051927187500 
 N -2.26083288125000 1.35271754687500 4.54642727187500 
 N -1.79012188125000 5.21583054687500 4.74052927187500 
 N -4.58476488125000 0.538131546875002 3.69209827187500 
 N -3.90890488125000 4.86635154687500 3.42666127187500 
 N -4.84437988125000 1.23390554687500 7.54583927187500 
 N -4.79410788125000 4.97362454687500 7.13805027187500 
 S -5.73899888125000 0.673200546875001 6.25758427187500 
 S -5.50855488125000 4.61854654687500 5.67097027187500 
 S -3.09014088125000 0.898649546875002 3.13808627187500 
 S -2.30062288125000 5.11327754687500 3.12192327187500 
 S -3.19397788125000 1.27534154687500 7.23240127187500 
 S -3.10293988125000 5.07785854687500 7.21367827187500 
