16

 C -3.05033728750000 1.75623219062500 5.48639487812500 
 C -3.58438528750000 5.26773419062500 5.49244487812500 
 C -4.14187828750000 1.13577019062500 4.78967687812500 
 C -4.66950628750000 4.46498919062500 4.95301187812500 
 N -2.01907628750000 2.07696519062500 4.68671287812500 
 N -2.58431428750000 5.52599519062500 4.64399187812500 
 N -3.91185228750000 0.881068190624999 3.49338887812500 
 N -4.52952528750000 4.24335219062500 3.64270287812500 
 N -4.68278828750000 0.891672190624999 7.27376587812500 
 N -5.22879528750000 4.63526219062500 7.45397087812500 
 S -5.42762428750000 0.588827190624999 5.80667087812500 
 S -5.94283728750000 4.02206119062500 6.09146087812500 
 S -2.40474528750000 1.50199019062500 3.16027287812500 
 S -3.07047628750000 4.94145619062500 3.18349087812500 
 S -3.32323728750000 1.85498019062500 7.17815387812500 
 S -3.82629028750000 5.50049919062500 7.23027387812500 
