16

 C -3.19902850312500 1.39429734687500 5.37262334375000 
 C -3.23743450312500 5.08808334687500 5.40027534375000 
 C -4.35647750312500 0.580748346875001 4.89787334375000 
 C -4.49995550312500 4.65149534687500 4.91154434375000 
 N -2.21960850312500 1.51569034687500 4.47208334375000 
 N -2.22551450312500 5.07754434687500 4.53447534375000 
 N -4.16342750312500 0.311543346875001 3.60007134375000 
 N -4.43484750312500 4.33356234687500 3.61433834375000 
 N -4.86872250312500 1.26622034687500 7.36891334375000 
 N -4.80292150312500 4.88962334687500 7.43820734375000 
 S -5.56079450312500 0.381358346875001 6.13283834375000 
 S -5.77801550312500 4.72293234687500 6.13225434375000 
 S -2.71247850312500 0.872491346875002 3.07054034375000 
 S -2.91513350312500 4.70434134687500 3.10184334375000 
 S -3.39043850312500 1.90274734687500 7.01210234375000 
 S -3.28502850312500 5.36635034687500 7.09197334375000 
