16

 C -3.15193670937500 0.932263053124998 5.59012572500000 
 C -2.96299570937500 5.07103505312500 5.59038872500000 
 C -4.33772870937500 0.557665053124998 4.84672372500000 
 C -4.13424670937500 4.55141405312500 4.94258372500000 
 N -2.06455470937500 1.22857205312500 4.83297872500000 
 N -1.91612370937500 5.26682705312500 4.79625472500000 
 N -4.11335270937500 0.485836053124998 3.52554972500000 
 N -4.02082670937500 4.45099705312500 3.62084472500000 
 N -5.10036870937500 1.05612505312500 7.35644972500000 
 N -4.70870170937500 4.77391805312500 7.45939472500000 
 S -5.82176070937500 0.416419053124998 6.01743272500000 
 S -5.46945770937500 4.27971005312500 6.08697272500000 
 S -2.50308070937500 0.825311053124998 3.25754772500000 
 S -2.38178270937500 4.86467705312500 3.26369372500000 
 S -3.48932770937500 1.27395505312500 7.30655072500000 
 S -3.16063770937500 5.34854305312500 7.28536172500000 
