16

 C -3.50755414062499 1.78301508125000 5.55324963750000 
 C -2.90918714062499 5.16751908125000 5.57618763750000 
 C -4.68077414062499 1.26914808125000 4.92332663750000 
 C -4.21830014062499 4.93250608125000 5.05363163750000 
 N -2.47316214062499 2.05571508125000 4.80085763750000 
 N -1.96162414062499 5.22721608125000 4.64407763750000 
 N -4.44531314062499 1.05693708125000 3.64645063750000 
 N -4.24421614062499 4.83041108125000 3.72569163750000 
 N -5.18133314062499 1.36121408125000 7.45085863750000 
 N -4.69270114062499 4.96588208125000 7.53566563750000 
 S -6.00118314062499 1.14347908125000 6.04268363750000 
 S -5.56276314062499 4.90647708125000 6.10364063750000 
 S -2.83480014062499 1.42674908125000 3.32199863750000 
 S -2.72648614062499 4.93796808125000 3.13816863750000 
 S -3.57273114062499 1.80927208125000 7.25209963750000 
 S -2.96917014062499 5.28960808125000 7.32522563750000 
