16

 C -3.05922194375000 1.52708829062500 5.65495005000000 
 C -3.40514394375000 4.87170929062500 5.61655805000000 
 C -4.24719394375000 1.15779929062500 4.95183705000000 
 C -4.52189694375000 4.43530029062500 4.78151705000000 
 N -1.96633294375000 1.57037329062500 4.89855005000000 
 N -2.27931294375000 4.99958429062500 4.91646505000000 
 N -4.08986494375000 0.954597290624999 3.66845605000000 
 N -4.21742194375000 4.34254229062500 3.49802005000000 
 N -5.10237994375000 1.14065529062500 7.41993205000000 
 N -5.24408694375000 4.79079529062500 7.21428505000000 
 S -5.72172494375000 0.920028290625000 5.84452905000000 
 S -5.91888994375000 4.18266329062500 5.81361905000000 
 S -2.50004894375000 1.27255729062500 3.30752405000000 
 S -2.55816794375000 4.70582129062500 3.36813405000000 
 S -3.46148394375000 1.59193429062500 7.41312805000000 
 S -3.60615094375000 5.04858529062500 7.24894505000000 
