16

 C -3.31140374062500 1.23033271875000 5.19317843437500 
 C -3.00000974062500 5.06638671875000 5.40308743437500 
 C -4.52638174062500 0.787790718749999 4.51565243437500 
 C -4.21252374062500 4.49157871875000 4.82357943437500 
 N -2.19699074062500 1.33369771875000 4.45743243437500 
 N -1.96225474062500 5.26843971875000 4.60920143437500 
 N -4.32895374062500 0.564113718749999 3.19888543437500 
 N -3.94742874062500 3.96515771875000 3.62896343437500 
 N -5.15320674062500 1.32929071875000 7.01160743437500 
 N -4.85336074062500 5.07777571875000 7.21852543437500 
 S -5.91451474062500 0.863214718749999 5.62268443437500 
 S -5.55244974062500 4.44607871875000 5.86235043437500 
 S -2.72126374062500 0.919970718749999 2.93315543437500 
 S -2.44170774062500 4.53610671875000 3.18750443437500 
 S -3.53250174062500 1.73008871875000 6.86688743437500 
 S -3.26532874062500 5.54503171875000 7.02603143437500 
