16

 C -3.50338173124999 1.39484323125000 5.51813564375000 
 C -3.07148173124999 5.14190423125000 5.42082764375000 
 C -4.48905673124999 0.568372231249999 4.87547864375000 
 C -4.27350873124999 4.79132823125000 4.66444664375000 
 N -2.46387573124999 1.78533223125000 4.77767964375000 
 N -1.92688973124999 5.12404323125000 4.72896864375000 
 N -4.18815573124999 0.318268231249998 3.58919264375000 
 N -3.98683873124999 4.45340423125000 3.37549364375000 
 N -5.30968573124999 0.888119231249998 7.22901264375000 
 N -4.99627673124999 5.14876423125000 7.15142864375000 
 S -5.88096773124999 0.232701231249998 5.85758664375000 
 S -5.69343973124999 4.93518623125000 5.66495464375000 
 S -2.67939573124999 0.987185231249999 3.26843064375000 
 S -2.35901473124999 4.60081523125000 3.16700064375000 
 S -3.87765273124999 1.73533723125000 7.23244064375000 
 S -3.31702773124999 5.51455023125000 7.11778664375000 
