16

 C -3.28068804375000 0.996751924999999 5.62997997500000 
 C -2.91629104375000 5.08213592500000 5.56749497500000 
 C -4.44722404375000 0.504505924999999 4.92201397500000 
 C -4.13074204375000 4.62269392500000 4.95646797500000 
 N -2.19632804375000 1.11819292500000 4.86685197500000 
 N -1.85260804375000 5.24768192500000 4.75358797500000 
 N -4.28510604375000 0.459811924999999 3.62640097500000 
 N -3.99855004375000 4.48712292500000 3.65228897500000 
 N -5.20991704375000 1.00437392500000 7.33052597500000 
 N -4.71944904375000 4.79177392500000 7.41378297500000 
 S -5.80485404375000 0.320991925000000 5.92102697500000 
 S -5.44936504375000 4.27023692500000 5.99291597500000 
 S -2.67780004375000 0.865343924999999 3.31503497500000 
 S -2.48022404375000 4.78514992500000 3.24706097500000 
 S -3.54954504375000 1.26838692500000 7.30859297500000 
 S -3.15654204375000 5.35808992500000 7.28745697500000 
