16

 C -2.98504570625000 1.57482357187500 5.47049399687500 
 C -3.13068870625000 5.12108557187500 5.39794099687500 
 C -4.15662970625000 1.07287157187500 4.73060099687500 
 C -4.33603770625000 4.52358657187500 4.88718999687500 
 N -1.90158570625000 1.54693557187500 4.69134999687500 
 N -2.16739070625000 5.19370557187500 4.48271699687500 
 N -3.95786570625000 0.794190571875003 3.44782999687500 
 N -4.31520270625000 4.12546457187500 3.60173999687500 
 N -5.00924570625000 1.30896257187500 7.18443899687500 
 N -4.86238470625000 5.01058257187500 7.35921599687500 
 S -5.60805270625000 0.965274571875003 5.69444099687500 
 S -5.63972270625000 4.38232157187500 6.03904299687500 
 S -2.32775670625000 1.11673057187500 3.12816499687500 
 S -2.83812470625000 4.63879457187500 3.03477099687500 
 S -3.44051570625000 1.77800157187500 7.16136299687500 
 S -3.26657670625000 5.45653557187500 7.14509499687500 
