16

 C -3.11324464687500 1.65280633750000 5.43745162812500 
 C -3.65425564687500 5.03078533750000 5.03339662812500 
 C -4.14143364687500 0.731046337500000 4.94404362812500 
 C -4.69344764687500 4.24877533750000 4.44851562812500 
 N -2.21047964687500 1.99235933750000 4.52561062812500 
 N -2.58047364687500 5.25827433750000 4.26658662812500 
 N -3.91205064687500 0.337825337500001 3.66725862812500 
 N -4.47448564687500 3.91057833750000 3.17641262812500 
 N -4.80624964687500 1.29374833750000 7.38780162812500 
 N -5.46681464687500 4.84499733750000 6.86948962812500 
 S -5.44384064687500 0.613027337500001 6.00665162812500 
 S -6.00536764687500 3.97892333750000 5.53230162812500 
 S -2.53087264687500 1.06050333750000 3.16498362812500 
 S -2.93663164687500 4.55374233750000 2.79412862812500 
 S -3.40502164687500 2.17604933750000 7.13278762812500 
 S -3.83495364687500 5.23780333750000 6.73727062812500 
