16

 C -2.74651202187500 1.73122856562500 5.30907041562500 
 C -3.31651902187500 5.00618056562500 5.56394641562500 
 C -3.88255302187500 0.981904565625000 4.75464241562500 
 C -4.54957702187500 4.60446356562500 4.93056141562500 
 N -1.84457102187500 2.05196656562500 4.36652341562500 
 N -2.30307402187500 5.43527656562500 4.78730541562500 
 N -3.86733302187500 0.753622565625000 3.40863741562500 
 N -4.37554502187500 4.57557756562500 3.61095141562500 
 N -4.21992402187500 1.05863556562500 7.33932241562500 
 N -5.06868502187500 4.40332856562500 7.45393041562500 
 S -5.02577002187500 0.568800565625000 5.99219841562500 
 S -5.79816002187500 3.99838256562500 6.01257941562500 
 S -2.43555002187500 1.44061156562500 2.91466241562500 
 S -2.80224102187500 5.04455656562500 3.24560941562500 
 S -2.76218202187500 1.84318656562500 7.12163841562500 
 S -3.49434402187500 5.00432156562500 7.30704541562500 
