16

 C -3.14321774375000 1.28074777812500 5.71140485625000 
 C -3.01304974375000 4.66797777812500 5.40483385625000 
 C -4.41017474375000 0.839850778124998 5.11150085625000 
 C -4.22979974375000 4.20018577812500 4.79150485625000 
 N -2.07360174375000 1.26420477812500 4.89209085625000 
 N -1.91612574375000 4.71353377812500 4.64013685625000 
 N -4.32772574375000 0.655006778124998 3.78806385625000 
 N -4.12400874375000 3.98966277812500 3.49433385625000 
 N -4.82056974375000 1.09699577812500 7.66697385625000 
 N -4.91415074375000 4.77610277812500 7.24605785625000 
 S -5.66696674375000 0.779471778124997 6.23971085625000 
 S -5.57243674375000 4.02462777812500 5.93156985625000 
 S -2.77274974375000 0.911627778124998 3.38785685625000 
 S -2.50356474375000 4.31551977812500 3.10178085625000 
 S -3.22894374375000 1.61375277812500 7.42398285625000 
 S -3.33994374375000 5.10489777812500 7.08395285625000 
