16

 C -3.22015431249999 0.977033428124996 5.41898426875000 
 C -3.17653131249999 4.71650042812500 5.60361126875000 
 C -4.55685631249999 0.741105428124996 4.80040326875000 
 C -4.44316531249999 4.53048942812500 4.97103426875000 
 N -2.19758531249999 1.10962142812500 4.57260526875000 
 N -2.15513731249999 4.88652942812500 4.69885726875000 
 N -4.53785731249999 0.772730428124996 3.47269626875000 
 N -4.50224131249999 4.53124942812500 3.63501126875000 
 N -4.91283731249999 0.490687428124996 7.30561626875000 
 N -4.93533431249999 4.69828042812500 7.50028126875000 
 S -5.76329131249999 0.252730428124996 5.91894626875000 
 S -5.76090031249999 4.56432642812500 6.09828626875000 
 S -2.91958531249999 1.05988042812500 3.08171226875000 
 S -2.86763331249999 4.75503342812500 3.22338026875000 
 S -3.28921231249999 0.840836428124996 7.16403426875000 
 S -3.31595031249999 4.69187942812500 7.35545226875000 
