16

 C -3.05596618125000 1.48866647187500 5.38951363125000 
 C -3.10855618125000 5.09176447187500 5.40995963125000 
 C -4.17723418125000 1.15516047187500 4.66427463125000 
 C -4.31604318125000 4.51265647187500 4.85037863125000 
 N -1.97690718125000 1.64601347187500 4.65292363125000 
 N -2.16753418125000 5.37901847187500 4.50844763125000 
 N -4.00736018125000 0.985540471875001 3.35520463125000 
 N -4.20843418125000 4.19876447187500 3.56828563125000 
 N -4.81935818125000 1.23567847187500 7.10061763125000 
 N -4.77289218125000 4.73230547187500 7.40798363125000 
 S -5.62012118125000 1.00282747187500 5.65638663125000 
 S -5.58017818125000 4.26729947187500 6.02838063125000 
 S -2.35186818125000 1.20469447187500 3.16129463125000 
 S -2.67476218125000 4.68547247187500 3.12394763125000 
 S -3.21546418125000 1.70791847187500 7.07449463125000 
 S -3.22541018125000 5.31763647187500 7.09251863125000 
