16

 C -3.26179482500000 1.37861783125000 5.69177245937500 
 C -3.18931482500000 5.42511483125000 5.48249345937500 
 C -4.53065182500000 1.32703383125000 4.96936745937500 
 C -4.37437282500000 4.96502583125000 4.83064445937500 
 N -2.18526182500000 1.31585083125000 4.91464245937500 
 N -2.12142682500000 5.63060083125000 4.72585045937500 
 N -4.41132682500000 1.15766383125000 3.64754145937500 
 N -4.15622782500000 4.68113683125000 3.57591945937500 
 N -4.96413482500000 1.04544883125000 7.57133045937500 
 N -4.94128082500000 4.89539383125000 7.41408345937500 
 S -5.86142782500000 1.02317883125000 6.16864845937500 
 S -5.69653782500000 4.56376783125000 5.94788945937500 
 S -2.76253782500000 1.21494183125000 3.29970445937500 
 S -2.56298082500000 5.10243183125000 3.23028645937500 
 S -3.37190582500000 1.38765683125000 7.42269545937500 
 S -3.37236282500000 5.46770683125000 7.15859245937500 
