16

 C -3.14433223125000 1.27111209687500 5.51013679375000 
 C -3.10229123125000 5.38134909687500 5.46569779375000 
 C -4.37818723125000 0.936950096875001 4.81444279375000 
 C -4.32826523125000 4.91476009687500 4.81736479375000 
 N -2.11381123125000 1.30337109687500 4.72377279375000 
 N -2.10733823125000 5.74938409687500 4.67771679375000 
 N -4.28829723125000 0.697079096875000 3.51367379375000 
 N -4.23153823125000 4.93221909687500 3.47638279375000 
 N -4.92487523125000 1.01274809687500 7.34853479375000 
 N -4.82876523125000 4.91009109687500 7.28048979375000 
 S -5.65857223125000 0.612067096875000 5.92554279375000 
 S -5.55826823125000 4.37288409687500 5.88253279375000 
 S -2.65044023125000 1.00962309687500 3.21588179375000 
 S -2.64454323125000 5.44694909687500 3.12932279375000 
 S -3.25709323125000 1.36094509687500 7.22899079375000 
 S -3.33545523125000 5.55704809687500 7.19228779375000 
