16

 C -2.81866020625000 1.30425920000000 5.66062355937500 
 C -2.94991120625000 4.85652620000000 5.37961555937500 
 C -4.19404320625000 1.16134220000000 5.22718955937500 
 C -4.19841820625000 4.52400420000000 4.68146255937500 
 N -1.94896920625000 0.937488199999996 4.74822155937500 
 N -1.84452620625000 4.91095620000000 4.65758455937500 
 N -4.32896420625000 0.680237199999996 4.01125455937500 
 N -4.00168820625000 4.28521120000000 3.35942655937500 
 N -4.56967920625000 1.70037420000000 7.71750755937500 
 N -4.68095820625000 4.89872420000000 7.22388355937500 
 S -5.49143620625000 1.41316820000000 6.30076155937500 
 S -5.55100620625000 4.54446520000000 5.90066755937500 
 S -2.88273720625000 0.579709199999995 3.40013955937500 
 S -2.36101020625000 4.51331120000000 3.15000455937500 
 S -2.88346320625000 1.53308620000000 7.43063655937500 
 S -3.03269620625000 4.81982320000000 7.10170155937500 
