16

 C -3.10425224062500 1.30346678125000 5.35008336875000 
 C -2.84964024062500 5.04528078125000 5.66488536875000 
 C -4.29880824062500 0.745914781249999 4.62457736875000 
 C -4.07138524062500 4.43683478125000 5.17451736875000 
 N -2.08291124062500 1.58650878125000 4.52816436875000 
 N -1.88555924062500 5.25579678125000 4.78992936875000 
 N -4.16730424062500 0.780964781249999 3.30027136875000 
 N -4.02726724062500 4.21211278125000 3.88352436875000 
 N -4.89549624062500 0.702649781249999 7.10658636875000 
 N -4.52192424062500 4.63354178125000 7.61883036875000 
 S -5.58340924062500 0.305580781249999 5.63381836875000 
 S -5.40679024062500 4.48899578125000 6.25966436875000 
 S -2.64037524062500 1.32766078125000 2.93028636875000 
 S -2.59023524062500 4.83422978125000 3.30209436875000 
 S -3.32799924062500 1.35057878125000 7.04920336875000 
 S -2.97990624062500 5.18456078125000 7.39359036875000 
