16

 C -3.14712100312500 1.45809343125000 5.52208094375000 
 C -3.56580600312500 5.12473243125000 5.51677994375000 
 C -4.23341500312500 0.902611431250001 4.82327894375000 
 C -4.64912700312500 4.39563643125000 4.95693194375000 
 N -2.13632900312500 1.79654643125000 4.75196194375000 
 N -2.56904500312500 5.39790243125000 4.65501994375000 
 N -4.07269300312500 0.900486431250001 3.51026094375000 
 N -4.60810900312500 4.27188543125000 3.63958494375000 
 N -4.91304700312500 0.979333431250001 7.31664194375000 
 N -5.19040500312500 4.69244743125000 7.45304194375000 
 S -5.65639000312500 0.716083431250001 5.86644494375000 
 S -5.90457900312500 4.16297543125000 6.06080494375000 
 S -2.54423600312500 1.54458843125000 3.16519294375000 
 S -3.13677800312500 4.88423543125000 3.20552994375000 
 S -3.43101300312500 1.76695543125000 7.19086594375000 
 S -3.68923700312500 5.45684343125000 7.23585394375000 
