16

 C -3.02030485312500 1.37450013125000 5.31974560937500 
 C -3.26577885312500 5.17827413125000 5.65334460937500 
 C -4.31510885312500 0.989217131249997 4.80946660937500 
 C -4.46365785312500 4.71874613125000 5.01273160937500 
 N -2.07304085312500 1.36872913125000 4.36815160937500 
 N -2.25111885312500 5.37083713125000 4.88850760937500 
 N -4.33860285312500 0.627986131249997 3.51943260937500 
 N -4.30509885312500 4.57100213125000 3.68725060937500 
 N -4.81432085312500 1.51679613125000 7.20457760937500 
 N -4.82840985312500 4.82952513125000 7.59993160937500 
 S -5.65188485312500 1.05801813125000 5.81625160937500 
 S -5.77075485312500 4.57917513125000 6.26481060937500 
 S -2.80432485312500 0.735815131249997 2.92830260937500 
 S -2.72808985312500 4.97291213125000 3.32085260937500 
 S -3.14407785312500 1.72648213125000 7.06952360937500 
 S -3.18164885312500 5.25367813125000 7.37644960937500 
