16

 C -3.18446882812500 1.26541034687501 5.36313755000000 
 C -3.12838182812500 4.93753534687501 5.48073555000000 
 C -4.26684382812500 0.578440346875006 4.82178755000000 
 C -4.45871782812500 4.67401234687501 4.95175955000000 
 N -2.21676782812500 1.63889934687501 4.50749155000000 
 N -2.17002782812500 5.03836834687501 4.57266655000000 
 N -4.20092082812500 0.287905346875006 3.50728155000000 
 N -4.47167282812500 4.44547434687501 3.65105655000000 
 N -4.88419982812500 1.21506134687501 7.34323155000000 
 N -4.80103882812500 4.82482034687501 7.50780355000000 
 S -5.56881882812500 0.348672346875006 6.12627155000000 
 S -5.73184082812500 4.64005434687501 6.12573955000000 
 S -2.69983682812500 0.885659346875006 3.02020455000000 
 S -2.91924382812500 4.71209234687501 3.07612255000000 
 S -3.39270082812500 1.88043234687501 7.00771655000000 
 S -3.21757782812500 5.32139734687501 7.15490455000000 
