16

 C -3.13242836875000 1.54044613437500 5.52849090937500 
 C -3.04699436875000 5.03544713437500 5.53609590937500 
 C -4.44917336875000 1.56646213437500 4.95027190937500 
 C -4.32843236875000 4.79985113437500 4.91171690937500 
 N -2.21218236875000 1.66781713437500 4.57789590937500 
 N -2.04549436875000 5.29616913437500 4.69893990937500 
 N -4.50071136875000 1.62693313437500 3.64026690937500 
 N -4.31956136875000 4.86683213437500 3.58596390937500 
 N -4.85949036875000 1.54675413437500 7.50150690937500 
 N -4.71050536875000 4.49515013437500 7.38656190937500 
 S -5.72030336875000 1.44880313437500 6.08981790937500 
 S -5.53632436875000 4.34518413437500 5.96704490937500 
 S -2.84846836875000 1.64628013437500 3.04721090937500 
 S -2.73434836875000 5.22991713437500 3.17040090937500 
 S -3.17934936875000 1.67976113437500 7.26961390937500 
 S -3.14903836875000 4.95652413437500 7.29251490937500 
