16

 C -3.23963355000000 1.50096885937500 5.39800649687500 
 C -3.37726855000000 5.33849685937500 5.44267249687500 
 C -4.38326155000000 0.836569859375001 4.84768549687500 
 C -4.48848155000000 4.69946885937500 4.82703449687500 
 N -2.34425855000000 1.82540785937500 4.46901949687500 
 N -2.41167155000000 5.77531685937500 4.65420749687500 
 N -4.35639155000000 0.661710859375001 3.54509149687500 
 N -4.36337655000000 4.66574985937500 3.49086149687500 
 N -4.93395255000000 1.16822885937500 7.31220449687500 
 N -5.00375155000000 4.85605385937500 7.39395649687500 
 S -5.64901855000000 0.452488859375001 5.94430349687500 
 S -5.76036355000000 4.34396285937500 6.03498449687500 
 S -2.96213155000000 1.23333785937500 3.01220049687500 
 S -2.90147555000000 5.30560785937500 3.14177549687500 
 S -3.34990255000000 1.72291985937500 7.08131549687500 
 S -3.45466655000000 5.39438485937500 7.18197049687500 
