16

 C -3.14546508749999 1.43061525625000 5.64241186250000 
 C -2.87426808749999 5.24629825625000 5.45345086250000 
 C -4.45025108749999 1.12570825625000 5.01454486250000 
 C -4.07902708749999 4.86899925625000 4.81683886250000 
 N -2.09734308749999 1.51599925625000 4.88322686250000 
 N -1.84069308749999 5.37445925625000 4.57528386250000 
 N -4.32677408749999 1.09170125625000 3.69635386250000 
 N -4.11524008749999 4.75395325625000 3.46679686250000 
 N -4.81751308749999 1.55977425625000 7.54241186250000 
 N -4.70749708749999 5.08269225625000 7.35720886250000 
 S -5.68655408749999 0.866805256250000 6.24746986250000 
 S -5.40329508749999 4.55684925625000 5.85255086250000 
 S -2.69869508749999 1.44848725625000 3.30678586250000 
 S -2.59442508749999 5.14302625625000 3.04512786250000 
 S -3.18780608749999 1.79577625625000 7.33722986250000 
 S -3.05906908749999 5.39267225625000 7.23327286250000 
