16

 C -3.65707769062500 1.31254846875000 5.74769161250000 
 C -3.12852569062500 5.04572746875000 5.35415861250000 
 C -4.70255069062500 0.894392468750001 4.91346861250000 
 C -4.38077769062500 4.54446746875000 4.81744261250000 
 N -2.49839869062500 1.57950346875000 5.10509261250000 
 N -2.22241469062500 5.28217446875000 4.40540561250000 
 N -4.36500669062500 0.657393468750001 3.61236561250000 
 N -4.34253669062500 4.26567346875000 3.53011661250000 
 N -5.67404369062500 0.768386468750001 7.40475161250000 
 N -4.81797869062500 4.87231246875000 7.33070261250000 
 S -6.16230369062500 0.446816468750002 5.83080761250000 
 S -5.65657769062500 4.41047246875000 5.98654261250000 
 S -2.79974869062500 1.13533246875000 3.50041661250000 
 S -2.88080669062500 4.67673446875000 2.97512361250000 
 S -4.14075869062500 1.32254546875000 7.53659861250000 
 S -3.28621369062500 5.44193146875000 7.05300861250000 
