16

 C -2.99042421562500 1.27621151562500 5.67997058750000 
 C -2.89191521562500 4.83601651562500 5.45338058750000 
 C -4.25840521562500 1.12708151562500 5.06750358750000 
 C -4.14428121562500 4.60242451562500 4.73560058750000 
 N -1.94607121562500 1.09198451562500 4.83095958750000 
 N -1.81462521562500 4.79301751562500 4.65072758750000 
 N -4.18596521562500 0.888420515624996 3.73851858750000 
 N -3.97926321562500 4.34010551562500 3.47305558750000 
 N -4.52182121562500 1.42369551562500 7.66451158750000 
 N -4.77322321562500 4.78040651562500 7.24115858750000 
 S -5.48319121562500 1.49214751562500 6.32064758750000 
 S -5.54516721562500 4.45191951562500 5.75349958750000 
 S -2.60677021562500 0.668757515624997 3.41206358750000 
 S -2.38798821562500 4.38450451562500 3.11146458750000 
 S -2.90677821562500 1.58975951562500 7.41277258750000 
 S -3.16715221562500 5.01289651562500 7.19507858750000 
