16

 C -2.85417500937500 1.94974433437500 5.55606512812500 
 C -3.20302200937500 5.50402933437500 5.29545212812500 
 C -4.15742800937500 1.66422033437500 4.94379412812500 
 C -4.32924800937500 4.86552633437500 4.68539412812500 
 N -1.85314800937500 2.15061833437500 4.68908612812500 
 N -2.24402700937500 5.85082633437500 4.42617012812500 
 N -4.12880200937500 1.59115533437500 3.59557712812500 
 N -4.13847300937500 4.60771333437500 3.39102312812500 
 N -4.60851100937500 1.61383333437500 7.48008612812500 
 N -4.90662400937500 5.02222233437500 7.18582512812500 
 S -5.46194600937500 1.41596533437500 6.07729312812500 
 S -5.62260800937500 4.58405933437500 5.73984712812500 
 S -2.49535700937500 1.85546533437500 3.21189112812500 
 S -2.68793600937500 5.28427033437500 2.96224712812500 
 S -3.08249000937500 2.17664833437500 7.30055712812500 
 S -3.32896900937500 5.36715133437500 7.02551312812500 
