16

 C -3.09684970000000 1.34848083750000 5.51363498437500 
 C -3.63843970000000 4.92789383750000 5.02305598437500 
 C -4.34525270000000 0.861011837500000 5.01044498437500 
 C -4.73227470000000 4.15511983750000 4.46731098437500 
 N -2.09374770000000 1.45099083750000 4.65298398437500 
 N -2.61065270000000 5.16975583750000 4.20021298437500 
 N -4.31130270000000 0.597464837500000 3.71446898437500 
 N -4.55300670000000 3.95315483750000 3.14615698437500 
 N -4.76255270000000 0.852377837500001 7.59685698437500 
 N -5.30452070000000 4.55398883750000 7.00232598437500 
 S -5.62713970000000 0.477901837500000 6.23007398437500 
 S -6.00971970000000 3.81814983750000 5.61505698437500 
 S -2.83406270000000 1.07004183750000 3.19698098437500 
 S -3.04826270000000 4.59859883750000 2.75648198437500 
 S -3.27121870000000 1.55424983750000 7.30757798437500 
 S -3.81252370000000 5.26206683750000 6.72716598437500 
