16

 C -3.20550315312500 1.42989029062500 5.32378889375000 
 C -3.08041115312500 4.90791029062500 5.53515289375000 
 C -4.23952515312500 0.620321290625000 4.81228489375000 
 C -4.38142115312500 4.63327029062500 4.98747889375000 
 N -2.21660515312500 1.60394129062500 4.47193589375000 
 N -2.13866915312500 4.89957429062500 4.61368389375000 
 N -4.11229115312500 0.281919290625000 3.53584989375000 
 N -4.44279315312500 4.61636029062500 3.65697089375000 
 N -4.88763215312500 1.13447529062500 7.17683589375000 
 N -4.68376015312500 4.85235029062500 7.50043689375000 
 S -5.52645415312500 0.265248290625000 5.86969489375000 
 S -5.59466115312500 4.46637129062500 6.16334089375000 
 S -2.73781415312500 0.994815290625001 3.03515189375000 
 S -2.88136115312500 4.75817729062500 3.14640689375000 
 S -3.35446415312500 1.74611629062500 6.99562889375000 
 S -3.09469315312500 5.18491929062500 7.31083089375000 
