16

 C -3.02741916875000 1.84352833437500 5.81190975000000 
 C -3.07344416875000 5.33211133437500 5.69326875000000 
 C -4.32762316875000 1.68651533437500 5.14849975000000 
 C -4.35481516875000 5.06564333437500 5.04614375000000 
 N -2.00754016875000 2.04264733437500 4.95039375000000 
 N -2.14035716875000 5.52383633437501 4.79812275000000 
 N -4.29014616875000 1.53395833437500 3.79236175000000 
 N -4.36035716875000 4.87262733437500 3.72500575000000 
 N -4.76859616875000 1.38417933437500 7.61340075000000 
 N -4.80716416875000 5.03425333437500 7.54391075000000 
 S -5.64090116875000 1.42410933437500 6.22245875000000 
 S -5.62818916875000 4.78517433437500 6.12728475000000 
 S -2.70818816875000 1.63005733437500 3.49305375000000 
 S -2.76359816875000 5.17657033437500 3.26925975000000 
 S -3.15869916875000 1.80488533437500 7.50433175000000 
 S -3.15654716875000 5.32115733437500 7.47626375000000 
