16

 C -2.98815501875000 1.24218928437500 5.51730501875000 
 C -2.94555501875000 5.04275528437500 5.68944201875000 
 C -4.04663701875000 0.673032284375003 4.85938101875000 
 C -4.12977301875000 4.49328928437500 5.08203401875000 
 N -1.90190101875000 1.30011028437500 4.78599601875000 
 N -1.96013401875000 5.24219728437500 4.82504201875000 
 N -3.86688101875000 0.417582284375003 3.58542201875000 
 N -4.03165301875000 4.35752228437500 3.76385801875000 
 N -4.88645101875000 1.25346528437500 7.20847701875000 
 N -4.64920201875000 4.85977428437500 7.64454001875000 
 S -5.48565501875000 0.564294284375003 5.79911201875000 
 S -5.43391201875000 4.28720428437500 6.30216301875000 
 S -2.29887401875000 0.844968284375003 3.25338301875000 
 S -2.53828001875000 4.84986128437500 3.28994901875000 
 S -3.23917001875000 1.63280228437500 7.14891901875000 
 S -3.08484301875000 5.39285928437500 7.40331601875000 
