16

 C -3.06601608750000 1.50126230312500 5.66072167187500 
 C -3.39768908750000 4.86994230312500 5.61347767187500 
 C -4.24852408750000 1.15676830312500 4.91535167187500 
 C -4.49388508750000 4.44713530312500 4.80357767187500 
 N -1.99161308750000 1.52615330312500 4.88026467187500 
 N -2.28624608750000 5.01239730312500 4.90874667187500 
 N -4.07537608750000 0.937055303125000 3.65361667187500 
 N -4.22996108750000 4.37355130312500 3.52021567187500 
 N -5.09355008750000 1.17007230312500 7.40313667187500 
 N -5.27536108750000 4.80741330312500 7.18795467187500 
 S -5.75092008750000 0.899533303124999 5.88354667187500 
 S -5.91957608750000 4.15690730312500 5.82626767187500 
 S -2.51771108750000 1.27986230312500 3.30499967187500 
 S -2.60340108750000 4.73511930312500 3.35412467187500 
 S -3.45552908750000 1.58733530312500 7.38997167187500 
 S -3.59747808750000 5.05283630312500 7.24697367187500 
