16

 C -2.96100443437500 1.38522656250000 5.35024175937500 
 C -3.23715743437500 4.88178556250000 5.52913675937500 
 C -4.18313943437500 0.944957562499999 4.76290475937500 
 C -4.43917143437500 4.34028756250000 4.92544175937500 
 N -2.07180643437500 1.68640556250000 4.41509375937500 
 N -2.27262443437500 5.33320956250000 4.72924675937500 
 N -4.18479043437500 0.793618562499999 3.43846375937500 
 N -4.37093243437500 4.46409156250000 3.60875275937500 
 N -4.53495543437500 0.994500562499999 7.29953975937500 
 N -4.99419043437500 4.50417056250000 7.41035375937500 
 S -5.43150443437500 0.710093562499999 5.92065475937500 
 S -5.79207143437500 4.05782456250000 5.99563275937500 
 S -2.68954743437500 1.35689856250000 2.89586575937500 
 S -2.90243743437500 5.07676356250000 3.18431375937500 
 S -3.05533643437500 1.76187956250000 7.08315275937500 
 S -3.42153843437500 4.99501056250000 7.27873275937500 
