16

 C -3.14227977187500 1.42162313437500 5.55598516250000 
 C -3.13484577187500 4.91392613437500 5.21281116250000 
 C -4.48498377187500 1.04241713437500 4.99158316250000 
 C -4.27621777187500 4.19145913437500 4.70546916250000 
 N -2.17858677187500 1.48987213437500 4.65552216250000 
 N -2.21099277187500 5.21304713437500 4.30127716250000 
 N -4.45355977187500 0.744730134375001 3.70352716250000 
 N -4.13013977187500 3.86593213437500 3.42521416250000 
 N -4.97264077187500 1.40580713437500 7.46600116250000 
 N -4.98279377187500 4.90829313437500 7.06574816250000 
 S -5.77508777187500 0.878822134375001 6.07692216250000 
 S -5.63373877187500 4.10658213437500 5.72351416250000 
 S -2.91845577187500 1.07572813437500 3.19519516250000 
 S -2.75814977187500 4.55025713437500 2.83474516250000 
 S -3.30285477187500 1.81619113437500 7.24000416250000 
 S -3.49366877187500 5.59321613437500 6.76856916250000 
