16

 C -3.30209899062500 1.48477434062500 5.50695468750000 
 C -3.25901199062500 5.00302834062500 5.15387168750000 
 C -4.56015599062500 0.966004340625001 4.94505568750000 
 C -4.33476199062500 4.17276634062500 4.61411668750000 
 N -2.31447299062500 1.54087634062500 4.63084168750000 
 N -2.25811399062500 5.22582934062500 4.29653968750000 
 N -4.46301399062500 0.763543340625000 3.62451468750000 
 N -4.20129799062500 3.91600534062500 3.29947468750000 
 N -5.00437699062500 1.46325734062500 7.47856968750000 
 N -5.03559599062500 4.83278534062500 7.02816968750000 
 S -5.78345499062500 0.895319340625000 6.17127268750000 
 S -5.63606899062500 4.02499134062500 5.74931468750000 
 S -2.89275999062500 1.07125734062500 3.15047768750000 
 S -2.77147299062500 4.66946234062500 2.81972268750000 
 S -3.44503099062500 1.72172634062500 7.23234568750000 
 S -3.55340299062500 5.56879134062500 6.83149768750000 
