16

 C -3.14188414062500 1.28154176562500 5.37971418437500 
 C -3.11029614062500 4.90000976562500 5.49888018437500 
 C -4.29747314062500 0.567567765625000 4.80617618437500 
 C -4.42089614062500 4.65216076562500 4.95866418437500 
 N -2.21955814062500 1.65193376562500 4.49170618437500 
 N -2.16397914062500 5.01050676562500 4.58099118437500 
 N -4.19579514062500 0.275817765625000 3.49156918437500 
 N -4.48737114062500 4.50422776562500 3.63117818437500 
 N -4.89297214062500 1.19377576562500 7.31300318437500 
 N -4.79705314062500 4.80921276562500 7.51434718437500 
 S -5.55954114062500 0.329277765625000 6.08657218437500 
 S -5.70364914062500 4.59955876562500 6.12047918437500 
 S -2.70042214062500 0.906360765625000 3.02433518437500 
 S -2.92077214062500 4.71458276562500 3.08046818437500 
 S -3.38259414062500 1.86098176562500 7.00023418437500 
 S -3.17374414062500 5.30615776562500 7.21042618437500 
