16

 C -3.19750810000000 1.42420792187500 5.56040495000000 
 C -3.57326910000000 4.90380992187500 5.02265195000000 
 C -4.31562310000000 0.686686921874998 4.97509795000000 
 C -4.65976810000000 4.14790692187500 4.48556395000000 
 N -2.20409210000000 1.66950692187500 4.68666695000000 
 N -2.57022410000000 5.10896092187500 4.16682395000000 
 N -4.30443210000000 0.576377921874998 3.62863395000000 
 N -4.60331010000000 4.02281892187500 3.17950595000000 
 N -4.80239010000000 1.18658892187500 7.47032995000000 
 N -5.32140510000000 4.50239492187500 6.87264795000000 
 S -5.51145610000000 0.436680921874999 6.17254995000000 
 S -5.98951010000000 3.81174492187500 5.52213895000000 
 S -2.75113910000000 1.04296692187500 3.28456095000000 
 S -3.14718210000000 4.59826292187500 2.71331895000000 
 S -3.30392710000000 1.87762192187500 7.24377695000000 
 S -3.91582010000000 5.27119692187500 6.73645995000000 
