16

 C -3.06045480624999 1.06315540312500 5.43224264062500 
 C -3.12830880624999 4.86316240312500 5.46978164062500 
 C -4.30216680624999 0.697034403125000 4.74774664062500 
 C -4.43209780624999 4.63936240312500 4.87211164062500 
 N -1.95985680624999 1.19642840312500 4.67262864062500 
 N -2.11473280624999 4.89632740312500 4.63840164062500 
 N -4.17363780624999 0.540527403125000 3.41336764062500 
 N -4.37000080624999 4.36770140312500 3.56058964062500 
 N -4.86666480624999 0.649003403125000 7.24248364062500 
 N -4.82958080624999 5.05351340312500 7.40767164062500 
 S -5.63189780624999 0.336527403125000 5.79521764062500 
 S -5.73276980624999 5.00968640312500 6.00968264062500 
 S -2.53560780624999 0.942600403125000 3.12093264062500 
 S -2.69048480624999 4.53759640312500 3.17757664062500 
 S -3.30873980624999 1.14864540312500 7.18446264062500 
 S -3.16596380624999 4.96743440312500 7.17992864062500 
