16

 C -3.43965896250000 1.23781614062500 5.51685522812500 
 C -3.07623496250000 5.09621314062500 5.38576022812500 
 C -4.54691196250000 0.586777140625001 4.79861322812500 
 C -4.25749196250000 4.78075114062500 4.69664922812500 
 N -2.33930596250000 1.44565114062500 4.83626422812500 
 N -1.94818596250000 5.00992114062500 4.68345922812500 
 N -4.28836396250000 0.458147140625001 3.51038622812500 
 N -4.10727896250000 4.39913314062500 3.39684022812500 
 N -5.39840396250000 1.11423914062500 7.06980722812500 
 N -5.13142996250000 5.45805514062500 7.01948822812500 
 S -5.89375596250000 0.201513140625001 5.84688522812500 
 S -5.70120296250000 4.81850314062500 5.61104422812500 
 S -2.73670096250000 1.03194814062500 3.24659422812500 
 S -2.50622296250000 4.50315014062500 3.11685522812500 
 S -3.85047496250000 1.61745114062500 7.12051722812500 
 S -3.41375396250000 5.51368514062500 7.01038822812500 
