16

 C -3.08151404375000 1.64525648750000 5.45273313437500 
 C -3.00708604375000 5.26824848750000 5.49018813437500 
 C -4.32944404375000 1.42235148750000 4.77453713437500 
 C -4.26647704375000 4.95917748750000 4.87214413437500 
 N -2.09303004375000 1.73314248750000 4.56971713437500 
 N -2.01149804375000 5.46806248750000 4.62766013437500 
 N -4.25327404375000 1.15540948750000 3.47897013437500 
 N -4.20461304375000 4.81387548750000 3.54375313437500 
 N -4.89182304375000 1.30152348750000 7.32934413437500 
 N -4.75071304375000 4.95088848750000 7.38976013437500 
 S -5.70353504375000 1.21421848750000 5.84372713437500 
 S -5.60131104375000 4.85433648750000 5.93651913437500 
 S -2.63366804375000 1.50227148750000 3.02713813437500 
 S -2.65141204375000 5.23771948750000 3.11346913437500 
 S -3.27784904375000 1.57360548750000 7.20541513437500 
 S -3.08958104375000 5.16218048750000 7.24059213437500 
