16

 C -3.31880150312500 1.45811805312500 5.62899310312500 
 C -3.53919250312500 5.26418705312500 5.59120510312500 
 C -4.50302450312500 0.968484053125001 5.01762210312500 
 C -4.66756850312500 4.67253805312500 4.86060110312500 
 N -2.31621550312500 1.78316605312500 4.77764910312500 
 N -2.57243750312500 5.62058205312500 4.76370310312500 
 N -4.42167750312500 0.795765053125002 3.70257110312500 
 N -4.44651350312500 4.38663905312500 3.56402410312500 
 N -4.93672550312500 1.05629005312500 7.54340010312500 
 N -5.26082250312500 4.84189605312500 7.41739210312500 
 S -5.73370150312500 0.638786053125001 6.17031410312500 
 S -5.92708550312500 4.20711705312500 6.01886810312500 
 S -2.90140150312500 1.42199905312500 3.31350010312500 
 S -2.96326550312500 5.15099505312500 3.22066210312500 
 S -3.29616250312500 1.53261605312500 7.36298810312500 
 S -3.76184850312500 5.50095505312500 7.30300310312500 
