16

 C -3.41135965000000 1.23909686562500 5.30589027812500 
 C -3.14615565000000 5.12239286562500 5.34976527812500 
 C -4.60074465000000 0.716205865625003 4.65127527812500 
 C -4.38768465000000 4.70412686562500 4.82726727812500 
 N -2.40462365000000 1.43302586562500 4.51495927812500 
 N -2.19161665000000 5.12090986562500 4.41713027812500 
 N -4.39504465000000 0.390078865625004 3.37280827812500 
 N -4.39364865000000 4.34779886562500 3.53765727812500 
 N -5.07386365000000 0.896395865625003 7.22936527812500 
 N -4.85573365000000 4.78733286562500 7.21337727812500 
 S -5.98476065000000 0.711523865625004 5.79268427812500 
 S -5.71149165000000 4.72466086562500 5.84808127812500 
 S -2.75854565000000 0.812605865625004 3.03636327812500 
 S -2.87807065000000 4.57753986562500 2.95805127812500 
 S -3.44050665000000 1.44857586562500 6.94381927812500 
 S -3.34051465000000 5.43670186562500 7.09575627812500 
