16

 C -3.26071367812500 0.912855749999999 5.43365952187500 
 C -3.28867667812500 5.01650375000000 5.56755352187500 
 C -4.52420867812500 0.691084750000000 4.76773952187500 
 C -4.50119667812500 4.56453075000000 4.90022552187500 
 N -2.20152767812500 1.10235875000000 4.61956352187500 
 N -2.25721367812500 5.27790575000000 4.73464852187500 
 N -4.48878067812500 0.738400749999999 3.41980352187500 
 N -4.36258367812500 4.37965875000000 3.58850852187500 
 N -5.02895067812500 0.625487750000000 7.29776052187500 
 N -4.98800567812500 4.55145675000000 7.43208752187500 
 S -5.89221367812500 0.428442749999999 5.89580652187500 
 S -5.88274067812500 4.40376175000000 6.00305752187500 
 S -2.83364467812500 0.977579749999999 3.08325152187500 
 S -2.79806867812500 4.91712375000000 3.24483652187500 
 S -3.39137667812500 0.800632750000000 7.15131552187500 
 S -3.35519167812500 4.88834275000000 7.31094452187500 
