16

 C -2.96573535000000 1.42820864375000 5.44989741875000 
 C -3.25721035000000 5.27701664375000 5.45527441875000 
 C -4.25804435000000 0.928747643750000 4.87830241875000 
 C -4.44417635000000 4.82312764375000 4.77995041875000 
 N -2.05306035000000 1.70244164375000 4.53861641875000 
 N -2.22688635000000 5.62971364375000 4.68582241875000 
 N -4.29105335000000 0.866517643750000 3.54784341875000 
 N -4.26982035000000 4.66148164375000 3.48128841875000 
 N -4.66265035000000 1.19376064375000 7.32808641875000 
 N -5.14014035000000 4.67273764375000 7.24360341875000 
 S -5.46716935000000 0.709651643749999 5.96954141875000 
 S -5.82805735000000 4.41249064375000 5.72643241875000 
 S -2.76338835000000 1.21976264375000 3.08886841875000 
 S -2.75267035000000 5.14955264375000 3.11308041875000 
 S -3.05492335000000 1.62417664375000 7.14824141875000 
 S -3.54478235000000 5.21809964375000 7.18636441875000 
