16

 C -3.20619467187500 1.07060326250000 5.52559788750000 
 C -3.12794367187500 5.55146626250000 5.56441888750000 
 C -4.41192167187500 0.812423262499997 4.87407888750000 
 C -4.22701267187500 4.94241526250000 4.86060388750000 
 N -2.10719267187500 1.09721626250000 4.73471188750000 
 N -2.04856067187500 5.82274026250000 4.84193388750000 
 N -4.34617967187500 0.693832262499996 3.54961288750000 
 N -3.97861867187500 4.71887826250000 3.59624288750000 
 N -4.97267067187500 1.20908426250000 7.34370788750000 
 N -4.91750767187500 5.09994026250000 7.39416288750000 
 S -5.70319167187500 0.733247262499996 5.95834288750000 
 S -5.51443667187500 4.44805126250000 5.95795688750000 
 S -2.78740367187500 1.07937126250000 3.17162888750000 
 S -2.42981367187500 5.32077526250000 3.28704188750000 
 S -3.34212067187500 1.45100826250000 7.21970488750000 
 S -3.49585367187500 5.99005726250000 7.21817088750000 
