16

 C -3.10512833437500 1.50144262500000 5.29411816875000 
 C -3.20003733437500 5.42762562500000 5.85043916875000 
 C -4.24664833437500 0.860508624999998 4.67367216875000 
 C -4.35173833437500 4.91551462500000 5.19641716875000 
 N -2.06535733437500 1.68631862500000 4.49969616875000 
 N -2.15605433437500 5.58641762500000 4.97176216875000 
 N -4.02876033437500 0.569325624999998 3.39555716875000 
 N -4.20318933437500 4.57860562500000 3.91905216875000 
 N -4.83097233437500 1.44165562500000 7.20005716875000 
 N -5.11543733437500 5.14916262500000 7.54961416875000 
 S -5.62568033437500 0.773806624999998 5.87632216875000 
 S -5.74523333437500 4.62902962500000 6.13033116875000 
 S -2.43705133437500 0.977425624999997 3.09297016875000 
 S -2.64173433437500 5.00771062500000 3.48407416875000 
 S -3.24924233437500 1.89422862500000 6.96213916875000 
 S -3.51066933437500 5.50549662500000 7.59326416875000 
