16

 C -3.13008063437500 1.18965600625000 5.46433420937500 
 C -3.07093363437500 4.64621800625000 5.54466020937500 
 C -4.25439663437500 0.545224006250000 4.80449520937500 
 C -4.30341463437500 4.34602100625000 4.88897920937500 
 N -2.06003463437500 1.46045900625000 4.70699720937500 
 N -2.04137963437500 4.80649900625000 4.73024520937500 
 N -3.99651663437500 0.351282006250000 3.49810820937500 
 N -4.13869963437500 4.10589200625000 3.59597020937500 
 N -4.99405863437500 1.06524200625000 7.23503020937500 
 N -4.93794363437500 5.14613300625000 7.26194120937500 
 S -5.67944463437500 0.343884006250000 5.87980120937500 
 S -5.68719963437500 4.43191300625000 5.92539120937500 
 S -2.53868963437500 1.06251800625000 3.17220620937500 
 S -2.57348463437500 4.47033400625000 3.17277120937500 
 S -3.47106863437500 1.66811900625000 7.11589120937500 
 S -3.29387863437500 5.41680500625000 7.17662720937500 
