16

 C -3.10789662187500 1.54613220000000 5.59711905000000 
 C -3.10052462187500 4.90605120000000 5.53640505000000 
 C -4.42368362187500 1.27088720000000 5.06828405000000 
 C -4.36752662187500 4.61671320000000 4.89551705000000 
 N -2.19552962187500 1.73386620000000 4.65312005000000 
 N -2.13218962187500 5.18907220000000 4.65280205000000 
 N -4.49896962187500 1.27448520000000 3.73338105000000 
 N -4.37988262187500 4.58300820000000 3.57100705000000 
 N -4.73393862187500 1.64114920000000 7.62418105000000 
 N -4.94733262187500 4.70361720000000 7.34522005000000 
 S -5.69552862187500 1.38554820000000 6.32878005000000 
 S -5.78007062187500 4.55237720000000 5.89140105000000 
 S -2.90454962187500 1.52175120000000 3.20102205000000 
 S -2.79095662187500 4.92809420000000 3.13442605000000 
 S -3.09551162187500 1.71984720000000 7.35715805000000 
 S -3.30441262187500 4.91471420000000 7.24502605000000 
