16

 C -3.21565041562500 1.11025228750000 5.58116758437500 
 C -3.30072541562500 5.19838928750000 5.66599958437500 
 C -4.47049641562500 0.813494287500000 4.90260358437500 
 C -4.35022741562500 4.45929328750000 4.98456758437500 
 N -2.09657741562500 1.09316328750000 4.83755158437500 
 N -2.32946241562500 5.57918328750000 4.85129258437500 
 N -4.29936241562500 0.701225287500000 3.58464758437500 
 N -4.21707641562500 4.35897228750000 3.65920758437500 
 N -4.97104041562500 0.619725287500000 7.46155258437500 
 N -4.96228741562500 4.54974928750000 7.56809458437500 
 S -5.81651141562500 0.589841287500000 6.05911358437500 
 S -5.61077641562500 4.03699728750000 6.07670158437500 
 S -2.68060241562500 0.938003287500000 3.29109058437500 
 S -2.74317041562500 5.07758828750000 3.33246258437500 
 S -3.37954241562500 1.07324728750000 7.31711758437500 
 S -3.48893741562500 5.32002428750000 7.39583358437500 
