16

 C -3.15609451250000 1.45967756562500 5.43673963437500 
 C -3.30017351250000 5.05284456562500 5.39486763437500 
 C -4.26337451250000 0.837255565625001 4.83214163437500 
 C -4.55248951250000 4.59378456562500 4.83679063437500 
 N -2.06077051250000 1.53010556562500 4.71130463437500 
 N -2.30133451250000 5.09062856562500 4.52581763437500 
 N -4.01009251250000 0.489248565625001 3.58151163437500 
 N -4.45946251250000 4.29852556562500 3.52616163437500 
 N -4.96041051250000 1.40716356562500 7.20946963437500 
 N -4.95114151250000 5.28114156562500 7.30287263437500 
 S -5.67003251250000 0.776116565625001 5.84371063437500 
 S -5.79159451250000 4.57805556562500 6.04761563437500 
 S -2.47219051250000 1.03291756562500 3.24862563437500 
 S -2.88175151250000 4.62882256562500 3.08656363437500 
 S -3.36728451250000 1.89569756562500 7.09845463437500 
 S -3.32504551250000 5.65283756562500 7.08002063437500 
