16

 C -3.26160052812500 1.35170460625000 5.43356670937500 
 C -3.16304352812500 5.41807860625000 5.76618470937500 
 C -4.38775252812500 0.805128606249999 4.75750170937500 
 C -4.32675052812500 5.03830460625000 4.99647070937500 
 N -2.24554952812500 1.67166360625000 4.65342070937500 
 N -2.08895152812500 5.52522860625000 5.02652170937500 
 N -4.27605652812500 0.683415606249999 3.42411470937500 
 N -4.15134752812500 5.05053960625000 3.69350670937500 
 N -5.18538252812500 1.17465760625000 7.16150870937500 
 N -5.04603652812500 5.24297260625000 7.40307670937500 
 S -5.75201252812500 0.376086606249999 5.82375970937500 
 S -5.73364852812500 5.07241260625000 5.93798270937500 
 S -2.75276552812500 1.23713360625000 3.06975070937500 
 S -2.55287952812500 5.29983960625000 3.41443870937500 
 S -3.53250652812500 1.47096160625000 7.19863170937500 
 S -3.45528752812500 5.54107660625000 7.55297470937500 
