16

 C -2.96586982812499 1.26479552500000 5.68239788750000 
 C -2.90273282812499 4.77782152500000 5.50256188750000 
 C -4.25892182812499 1.17471452500000 5.03131588750000 
 C -4.12891882812499 4.48667652500000 4.76012788750000 
 N -1.88927182812499 1.05969452500000 4.94455888750000 
 N -1.81368382812499 4.67037552500000 4.71788988750000 
 N -4.15586482812499 0.906032525000000 3.74805788750000 
 N -4.05444782812499 4.29667852500000 3.46135688750000 
 N -4.64311882812499 1.37225352500000 7.66040488750000 
 N -4.89110382812499 4.73015852500000 7.15438788750000 
 S -5.52077082812499 1.46285052500000 6.26819188750000 
 S -5.49255482812499 4.42058352500000 5.69461388750000 
 S -2.44709082812499 0.837332525000000 3.39738488750000 
 S -2.41938582812499 4.39538452500000 3.19928688750000 
 S -2.94052782812499 1.62299752500000 7.35452588750000 
 S -3.24397882812499 5.11227552500000 7.21694588750000 
