16

 C -3.22309885312500 1.18033035000000 5.57847157500000 
 C -3.30110185312500 4.95599035000000 5.55894657500000 
 C -4.42754385312500 0.871031349999999 4.88883157500000 
 C -4.46725785312500 4.45664335000000 4.88461857500000 
 N -2.18749985312500 1.41240935000000 4.79637057500000 
 N -2.31426785312500 5.20135735000000 4.65403557500000 
 N -4.30573285312500 0.923536349999999 3.52628657500000 
 N -4.40451385312500 4.46851435000000 3.58231957500000 
 N -4.96114685312500 1.26120935000000 7.45901757500000 
 N -5.27131785312500 4.74098235000000 7.26539557500000 
 S -5.74178285312500 0.880311349999998 6.01388657500000 
 S -5.79350085312500 4.12232635000000 5.87831357500000 
 S -2.65943185312500 1.19319635000000 3.27779557500000 
 S -2.89923385312500 4.95311435000000 3.12235257500000 
 S -3.28888585312500 1.61048235000000 7.20731257500000 
 S -3.63151385312500 5.11612635000000 7.32598057500000 
