16

 C -3.24375383750000 1.03699372500000 5.53945379062500 
 C -3.18444783750000 5.09479072500000 5.73972079062500 
 C -4.48095383750000 0.815523725000002 4.86881279062500 
 C -4.38170383750000 4.54792472500000 5.08620779062500 
 N -2.23243983750000 1.23188772500000 4.71680579062500 
 N -2.21663983750000 5.46242172500000 4.87354079062500 
 N -4.41357783750000 0.795652725000002 3.54772279062500 
 N -4.21967283750000 4.28998572500000 3.77519579062500 
 N -5.01948783750000 0.512200725000003 7.32824779062500 
 N -4.84200783750000 4.42612372500000 7.55032979062500 
 S -5.81722483750000 0.507901725000003 5.84574279062500 
 S -5.73911583750000 4.16883872500000 6.15999679062500 
 S -2.79936983750000 0.952697725000002 3.16803479062500 
 S -2.76470283750000 4.98365172500000 3.36697979062500 
 S -3.40175783750000 0.948459725000002 7.31583179062500 
 S -3.46212783750000 5.31650072500000 7.43589079062500 
