16

 C -3.04308539062500 1.81935447812500 5.48405996562500 
 C -3.09489739062500 5.33374647812500 5.66112996562500 
 C -4.28900639062500 1.38260347812500 4.94002996562500 
 C -4.24113039062500 4.83141547812500 4.94631896562500 
 N -2.04422339062500 1.84100147812500 4.60679896562500 
 N -2.04882039062500 5.49198147812500 4.86728696562500 
 N -4.30672639062500 1.11650847812500 3.60816596562500 
 N -4.11029639062500 4.63096047812500 3.63119096562500 
 N -4.65308039062500 1.32476247812500 7.56254396562500 
 N -4.88261739062500 4.78130247812500 7.48164696562500 
 S -5.52869039062500 1.28000447812500 6.16799796562500 
 S -5.61339339062500 4.56494147812500 5.98602696562500 
 S -2.74898139062500 1.49094847812500 3.07921696562500 
 S -2.50562139062500 5.14772447812500 3.31013296562500 
 S -3.02830339062500 1.67275947812500 7.26110496562500 
 S -3.28734139062500 5.28519147812500 7.42442596562500 
