16

 C -3.11098692812500 1.13103091875000 5.54814447812500 
 C -3.32281492812500 4.77188891875000 5.41806547812500 
 C -4.22145992812500 0.576078918750000 4.80270047812500 
 C -4.63951992812500 4.77060991875000 4.81675147812500 
 N -2.12844392812500 1.60826191875000 4.77988947812500 
 N -2.31689292812500 4.89206891875000 4.53095747812500 
 N -4.10328592812500 0.637589918750000 3.47729247812500 
 N -4.58880892812500 4.67868591875000 3.50679147812500 
 N -5.09767692812500 0.589107918750000 7.33030547812500 
 N -5.10201192812500 4.80489791875000 7.28586047812500 
 S -5.63152592812500 6.136591875000041E-002 5.77631747812500 
 S -5.97462292812500 4.52022191875000 5.93551047812500 
 S -2.61808892812500 1.27985291875000 3.18579847812500 
 S -3.00927392812500 4.72697691875000 3.01813447812500 
 S -3.53659892812500 1.15989391875000 7.36210447812500 
 S -3.45147292812500 4.76471491875000 7.14079447812500 
