16

 C -3.12996065312500 1.57462186249999 5.42948534062500 
 C -3.17195265312500 5.29057386249999 5.97431534062500 
 C -4.32076765312500 1.05498686249999 4.75489034062500 
 C -4.44306465312500 5.00642686249999 5.30167434062500 
 N -2.14996165312500 1.89106086249999 4.58353934062500 
 N -2.11265065312500 5.35785686249999 5.16024534062500 
 N -4.20483865312500 0.835714862499994 3.46181234062500 
 N -4.36963765312500 4.88145086249999 3.97329234062500 
 N -4.91312165312500 1.00328486249999 7.26268634062500 
 N -4.95264665312500 5.15139586249999 7.88639934062500 
 S -5.65901865312500 0.662127862499994 5.77840234062500 
 S -5.73976965312500 4.92634986250000 6.44413334062500 
 S -2.67229265312500 1.43134986249999 3.07040334062500 
 S -2.69033465312500 5.04550986249999 3.66552334062500 
 S -3.29875865312500 1.42378886250000 7.19178134062500 
 S -3.27624765312500 5.39801886249999 7.70604134062500 
