16

 C -3.16027191562500 1.31271460000000 5.63199368125000 
 C -2.99373191562500 5.11187160000000 5.47700168125000 
 C -4.37125591562500 1.12350760000000 4.93523268125000 
 C -4.24808591562500 4.82505060000000 4.88678768125000 
 N -2.11512591562500 1.58676360000000 4.86537368125000 
 N -1.94332991562500 5.33846660000000 4.67290668125000 
 N -4.31749491562500 1.27768760000000 3.60199868125000 
 N -4.14930091562500 4.69226560000000 3.55834068125000 
 N -5.07282391562500 1.05056260000000 7.41242168125000 
 N -4.90629491562500 5.16352060000000 7.35303068125000 
 S -5.84011291562500 0.937119600000001 5.91302868125000 
 S -5.61062391562500 4.62802060000000 5.93616568125000 
 S -2.73167291562500 1.71291160000000 3.33271168125000 
 S -2.64015691562500 5.15407860000000 3.13015568125000 
 S -3.37629091562500 1.23570560000000 7.37946268125000 
 S -3.30473691562500 5.50620760000000 7.12584768125000 
