16

 C -2.94296380000000 1.47496878750000 5.28043300312500 
 C -3.07114680000000 5.07324478750000 5.49873000312500 
 C -4.15550280000000 1.06623978750000 4.70730300312500 
 C -4.24641480000000 4.55631278750000 4.81945700312500 
 N -1.92165180000000 1.61454178750000 4.44961300312500 
 N -2.08485580000000 5.34465678750000 4.66872000312500 
 N -4.16343380000000 0.928774787500000 3.38237700312500 
 N -4.18867080000000 4.48084778750000 3.49738800312500 
 N -4.64072580000000 1.18313678750000 7.21078200312500 
 N -4.92939880000000 4.73746278750000 7.31929900312500 
 S -5.50828480000000 1.00065078750000 5.80807800312500 
 S -5.54849280000000 4.16789778750000 5.85733300312500 
 S -2.59929080000000 1.32711978750000 2.91665700312500 
 S -2.63734580000000 4.93497578750000 3.09439900312500 
 S -3.04539380000000 1.62107378750000 7.06552200312500 
 S -3.34629080000000 5.26119478750000 7.24681200312500 
