16

 C -3.32603193125000 1.29702225312500 5.53585964687500 
 C -3.37790293125000 4.74349625312500 5.26462364687500 
 C -4.46425893125000 0.685847253125001 4.89891964687500 
 C -4.64983693125000 4.44982525312500 4.65255764687500 
 N -2.28607193125000 1.54910125312500 4.77394664687500 
 N -2.37105293125000 5.12578425312500 4.47563364687500 
 N -4.34170193125000 0.591938253125001 3.59444064687500 
 N -4.51762993125000 4.47798925312500 3.33419264687500 
 N -5.04897293125000 0.962955253125001 7.36710364687500 
 N -5.12565093125000 4.61762325312500 7.12174164687500 
 S -5.75686493125000 0.275914253125002 5.99413264687500 
 S -5.99634793125000 4.45066425312500 5.72714564687500 
 S -2.78939893125000 1.15355525312500 3.23837864687500 
 S -2.99681493125000 4.97341825312500 2.92118264687500 
 S -3.46299893125000 1.46357625312500 7.22425364687500 
 S -3.54117693125000 4.98095925312500 6.97736764687500 
