16

 C -3.25451890937500 1.10224709062500 5.50693538437500 
 C -2.83211890937500 5.11879709062500 5.45497538437500 
 C -4.53889690937500 0.752098090624999 5.01837638437500 
 C -4.05938090937500 4.94801509062500 4.74296438437500 
 N -2.33833490937500 1.28686909062500 4.55360638437500 
 N -1.71888490937500 5.29124309062500 4.73352838437500 
 N -4.56679590937500 0.497981090624999 3.70494238437500 
 N -3.82780390937500 4.85028809062500 3.46411738437500 
 N -4.79923090937500 1.34956709062500 7.44673638437500 
 N -4.79186490937500 5.05733009062500 7.11288838437500 
 S -5.73121290937500 0.616303090624999 6.24442538437500 
 S -5.45894190937500 4.62113209062500 5.67871538437500 
 S -3.04363490937500 0.884089090624999 3.13197338437500 
 S -2.25629090937500 5.13827309062500 3.14915038437500 
 S -3.13418090937500 1.26581209062500 7.21491838437500 
 S -3.10031190937500 5.08205009062500 7.18710438437500 
