16

 C -3.26477045312500 1.39126910000000 5.53147511875000 
 C -3.30700145312500 5.10296110000000 5.45168911875000 
 C -4.53495045312500 1.09174210000000 4.86874411875000 
 C -4.51559045312500 4.58848710000000 4.85073411875000 
 N -2.21613545312500 1.54801610000000 4.70223011875000 
 N -2.31488545312500 5.32209310000000 4.61413711875000 
 N -4.44430045312500 0.908335100000000 3.52971311875000 
 N -4.48053445312500 4.50269810000000 3.52484411875000 
 N -5.02797345312500 1.20763210000000 7.46932911875000 
 N -4.99544945312500 4.87154910000000 7.38156511875000 
 S -5.82215345312500 0.743779100000000 6.05353311875000 
 S -5.78299545312500 4.38827710000000 5.97899111875000 
 S -2.84560345312500 1.20701710000000 3.17379811875000 
 S -2.91115845312500 4.90714410000000 3.10127311875000 
 S -3.39529945312500 1.45875210000000 7.30997911875000 
 S -3.39504845312500 5.12907310000000 7.21577411875000 
