16

 C -3.18548386250000 1.16672407187500 5.50649144062500 
 C -2.90322986250000 5.20661107187500 5.49663644062500 
 C -4.49127186250000 0.725377071874998 5.03293444062500 
 C -4.09312886250000 4.89180407187500 4.72274244062500 
 N -2.26094486250000 1.34915107187500 4.53461344062500 
 N -1.82328886250000 5.20974707187500 4.71574344062500 
 N -4.58995486250000 0.575855071874999 3.70330044062500 
 N -3.96916886250000 4.86949007187500 3.40163644062500 
 N -4.84049686250000 1.11954107187500 7.60064944062500 
 N -4.80160186250000 4.89063307187500 7.20857744062500 
 S -5.73898086250000 0.726414071874999 6.24278344062500 
 S -5.52205686250000 4.62382307187500 5.68132144062500 
 S -3.09216486250000 0.920671071874999 3.11531544062500 
 S -2.33541686250000 5.08931107187500 3.11536644062500 
 S -3.23936986250000 1.30394507187500 7.24712944062500 
 S -3.12880186250000 5.08888307187500 7.23241644062500 
