16

 C -3.55835380000000 1.46684215312500 5.32410440625000 
 C -3.34327180000000 5.05639315312500 5.79700840625000 
 C -4.67723580000000 0.950314153125001 4.56962540625000 
 C -4.54741980000000 4.59897915312500 5.15783640625000 
 N -2.42295580000000 1.74323915312500 4.67358440625000 
 N -2.28041980000000 5.12692715312500 4.94284740625000 
 N -4.40788780000000 0.960704153125001 3.22235440625000 
 N -4.50180380000000 4.58551615312500 3.81255240625000 
 N -5.25545180000000 0.852132153125001 7.13849040625000 
 N -5.06046080000000 4.96104115312500 7.60906740625000 
 S -5.96026180000000 0.641133153125001 5.67569240625000 
 S -5.87593280000000 4.55595815312500 6.23076140625000 
 S -2.90614980000000 1.60015415312500 3.04464340625000 
 S -2.85115280000000 4.83279515312500 3.44618140625000 
 S -3.78640780000000 1.63902215312500 7.07166940625000 
 S -3.41360780000000 5.16436815312500 7.51891840625000 
