16

 C -3.13953111875000 1.12831594062500 5.41915448750000 
 C -3.12070711875000 5.20346594062500 5.57240648750000 
 C -4.27339511875000 0.550187940625001 4.79031648750000 
 C -4.34546611875000 4.82901894062500 4.90071848750000 
 N -2.04652211875000 1.25990294062500 4.66368048750000 
 N -2.05100511875000 5.16280294062500 4.78629648750000 
 N -3.99793911875000 0.135481940625001 3.54147448750000 
 N -4.18559011875000 4.63415794062500 3.59566648750000 
 N -5.05926611875000 1.24432394062500 7.11422848750000 
 N -4.89222711875000 5.27024294062500 7.42422648750000 
 S -5.70506211875000 0.578024940625002 5.76567648750000 
 S -5.63625011875000 4.70993194062500 6.03727148750000 
 S -2.43750111875000 0.524803940625001 3.24551148750000 
 S -2.53870811875000 4.84804294062500 3.24908848750000 
 S -3.40837811875000 1.51230994062500 7.12837948750000 
 S -3.29001411875000 5.57252994062500 7.22960948750000 
