16

 C -3.25382309375000 1.44694435937500 5.38863601562500 
 C -3.33832609375000 5.28449635937500 5.42067801562500 
 C -4.40769709375000 0.808276359375003 4.91896201562500 
 C -4.48382809375000 4.71527435937500 4.76910401562500 
 N -2.34088909375000 1.68819335937500 4.46973501562500 
 N -2.37175209375000 5.60770335937500 4.56847301562500 
 N -4.39378309375000 0.439037359375003 3.62620101562500 
 N -4.45141609375000 4.67124635937500 3.44959601562500 
 N -4.73791309375000 1.15073935937500 7.46428601562500 
 N -5.04825009375000 4.70833935937500 7.21313101562500 
 S -5.61381909375000 0.504582359375003 6.19720601562500 
 S -5.67993809375000 4.13452435937500 5.79836101562500 
 S -2.86649409375000 1.02767135937500 3.08001201562500 
 S -2.89638709375000 5.18616335937500 3.03317601562500 
 S -3.35995709375000 1.97154135937500 7.01665801562500 
 S -3.64526909375000 5.52936635937500 7.11488701562500 
