16

 C -3.19634641250000 1.17328598437500 5.53898006250000 
 C -3.32685641250000 4.97631998437500 5.53779306250000 
 C -4.42391841250000 0.890794984374998 4.88058006250000 
 C -4.51198341250000 4.45303298437500 4.86108306250000 
 N -2.17009241250000 1.39535798437500 4.75160806250000 
 N -2.33642741250000 5.24330998437500 4.63896806250000 
 N -4.29287841250000 0.897407984374998 3.57234706250000 
 N -4.39850941250000 4.46382698437500 3.55207706250000 
 N -4.94497841250000 1.23951698437500 7.44507906250000 
 N -5.23891741250000 4.69505198437500 7.28153606250000 
 S -5.73852541250000 0.886765984374999 6.01466706250000 
 S -5.79305541250000 4.13701898437500 5.89270906250000 
 S -2.71734641250000 1.17238998437500 3.24773306250000 
 S -2.92755741250000 4.96697298437500 3.10990106250000 
 S -3.28601341250000 1.61881498437500 7.22424106250000 
 S -3.60162041250000 5.13468398437500 7.31877306250000 
