16

 C -2.97574805937499 1.38970084375000 5.39854728750000 
 C -3.20071405937499 5.23452084375000 5.98420028750000 
 C -4.16373805937499 0.934812843750004 4.72990028750000 
 C -4.43197205937499 4.87539984375000 5.22649828750000 
 N -1.98605905937499 1.67943184375000 4.56911928750000 
 N -2.11012205937499 5.40047484375000 5.28537528750000 
 N -4.09918005937499 0.867431843750005 3.39990528750000 
 N -4.19522105937499 4.79706784375001 3.93020728750000 
 N -4.85777405937499 1.18561084375000 7.20012228750000 
 N -5.03794705937499 5.03988884375000 7.78060428750000 
 S -5.53205205937499 0.673514843750005 5.76184828750000 
 S -5.83574105937499 4.83453784375000 6.30377928750000 
 S -2.51321005937499 1.28352584375000 2.95900328750000 
 S -2.62372105937499 5.13789784375000 3.67935628750000 
 S -3.23902005937499 1.70631784375001 7.07832728750000 
 S -3.44336505937499 5.54190584375000 7.66393228750000 
