16

 C -3.00965488437500 1.43979779062500 5.31883205625000 
 C -3.20980188437500 5.18484279062500 5.65671805625000 
 C -4.25188188437500 1.03481779062500 4.76014505625000 
 C -4.45073688437500 4.73949979062500 4.97666105625000 
 N -2.04977188437500 1.46550079062500 4.37924005625000 
 N -2.14951988437500 5.41285979062500 4.85905305625000 
 N -4.27845088437500 0.598396790625000 3.50876605625000 
 N -4.25607588437500 4.53907979062500 3.65168205625000 
 N -4.85100888437500 1.44987179062500 7.28540605625000 
 N -4.75350688437500 4.80891779062500 7.58806605625000 
 S -5.59030388437500 1.10914979062500 5.82531805625000 
 S -5.75860688437500 4.66336179062500 6.25480105625000 
 S -2.73375988437500 0.716624790625001 3.07649805625000 
 S -2.64933488437500 4.96826779062500 3.38188305625000 
 S -3.15294588437500 1.67655379062500 7.08966805625000 
 S -3.21133788437500 5.29359279062500 7.41698705625000 
