16

 C -3.13611961250000 1.43501516250001 5.29350025625000 
 C -3.29336261250000 5.22941716250001 5.34546725625000 
 C -4.41322261250000 0.979463162500005 4.79176625625000 
 C -4.51028761250000 4.60676116250001 4.85499625625000 
 N -2.13230861250000 1.46274016250001 4.46260725625000 
 N -2.51083561250000 5.49373516250000 4.32669525625000 
 N -4.31754161250000 0.724382162500006 3.52057725625000 
 N -4.54964861250000 4.33300016250001 3.54548225625000 
 N -4.57286161250000 1.28667416250001 7.36014725625000 
 N -4.89294861250000 4.68603316250001 7.42808425625000 
 S -5.60791461250000 0.911975162500005 6.13345825625000 
 S -5.65457561250000 4.21413816250001 6.03289525625000 
 S -2.72190161250000 0.946251162500006 3.04561225625000 
 S -3.10018661250000 4.92572716250001 2.91094525625000 
 S -2.97763861250000 1.54793116250001 6.98379925625000 
 S -3.27581561250000 5.28893616250001 7.12780125625000 
