16

 C -3.11646465000000 1.44423606562500 5.29163631250000 
 C -3.26806865000000 5.22321206562500 5.35803931250000 
 C -4.37939065000000 0.991260065625003 4.79959031250000 
 C -4.48830565000000 4.58998706562500 4.86281131250000 
 N -2.12145765000000 1.44245006562500 4.45230931250000 
 N -2.50405965000000 5.46903806562500 4.32589531250000 
 N -4.28091465000000 0.701599065625004 3.50509331250000 
 N -4.53317065000000 4.34447506562500 3.54558631250000 
 N -4.57644765000000 1.29789906562500 7.37545831250000 
 N -4.88501865000000 4.71591306562500 7.41316431250000 
 S -5.60155465000000 0.907906065625003 6.13368531250000 
 S -5.64845065000000 4.20998906562500 6.03442131250000 
 S -2.72454465000000 0.957438065625004 3.03565731250000 
 S -3.11170365000000 4.92184806562500 2.90967031250000 
 S -2.96725965000000 1.55120306562500 6.96810431250000 
 S -3.27070365000000 5.29981306562500 7.12371431250000 
