16

 C -3.05841024375000 1.05394606562500 5.44632275937500 
 C -3.13225024375000 4.88711206562500 5.49166675937500 
 C -4.29260624375000 0.682019065625002 4.72338975937500 
 C -4.39932724375000 4.63445406562500 4.87661175937500 
 N -1.96578724375000 1.12967306562500 4.69577875937500 
 N -2.12266024375000 4.93208206562500 4.63799175937500 
 N -4.11691324375000 0.543666065625002 3.41377375937500 
 N -4.33822124375000 4.38857506562500 3.60963375937500 
 N -4.87374924375000 0.689544065625002 7.22023675937500 
 N -4.81692724375000 5.04166306562500 7.38348575937500 
 S -5.65487224375000 0.359648065625002 5.80019275937500 
 S -5.73895724375000 5.01585306562500 5.98518275937500 
 S -2.49855524375000 0.934669065625002 3.15355375937500 
 S -2.67890024375000 4.55347906562500 3.13398275937500 
 S -3.31450724375000 1.19076006562500 7.15253975937500 
 S -3.16612524375000 5.02640806562500 7.22804875937500 
