16

 C -3.05659601250000 1.48815411875000 5.40134871562500 
 C -3.11608701250000 5.08465811875000 5.42286571562500 
 C -4.18950701250000 1.18016011875000 4.65298671562500 
 C -4.30858201250000 4.51349211875000 4.85213871562500 
 N -1.97178801250000 1.62968711875000 4.66587571562500 
 N -2.19347001250000 5.36631411875000 4.48783971562500 
 N -3.97886901250000 0.959461118749999 3.36510671562500 
 N -4.21817801250000 4.18170411875000 3.56186671562500 
 N -4.84037401250000 1.24202611875000 7.10430671562500 
 N -4.77608101250000 4.75440111875000 7.40482971562500 
 S -5.62609401250000 0.994872118750000 5.64990171562500 
 S -5.57830601250000 4.28037411875000 6.02346971562500 
 S -2.34846801250000 1.19648011875000 3.17853071562500 
 S -2.69441001250000 4.66676111875000 3.10820771562500 
 S -3.22843301250000 1.71936311875000 7.08018371562500 
 S -3.22133701250000 5.33648311875000 7.12069571562500 
