16

 C -3.16957422500000 1.41490058125000 5.56594472812500 
 C -3.10757222500000 4.91624658125000 5.20795172812500 
 C -4.39044322500000 0.978994581250001 5.03102872812500 
 C -4.28314122500000 4.26113158125000 4.67872072812500 
 N -2.19043522500000 1.45740058125000 4.65808272812500 
 N -2.18080222500000 5.22245258125000 4.31250272812500 
 N -4.41039922500000 0.769420581250001 3.73533172812500 
 N -4.15471822500000 3.85534858125000 3.43915472812500 
 N -4.89308022500000 1.34519158125000 7.47341572812500 
 N -4.94571622500000 4.93073258125000 7.00004472812500 
 S -5.75810722500000 0.865528581250001 6.04769972812500 
 S -5.64682422500000 4.15799958125000 5.74802572812500 
 S -2.87168222500000 1.04722058125000 3.20775972812500 
 S -2.72509122500000 4.47340058125000 2.90208272812500 
 S -3.22689822500000 1.85655958125000 7.24556572812500 
 S -3.42396022500000 5.58023158125000 6.76409872812500 
