16

 C -3.00300655000000 1.50757099687500 5.68694827812500 
 C -3.12095155000000 5.17275899687500 5.77730127812500 
 C -4.11945455000000 0.907017996875001 5.03649227812500 
 C -4.35434055000000 4.84829599687500 5.09137527812500 
 N -1.93935455000000 1.76423499687500 4.91360827812500 
 N -2.04082555000000 5.28764299687500 5.01407527812500 
 N -3.98627755000000 0.715250996875000 3.71449527812500 
 N -4.20935455000000 4.88431199687500 3.75059427812500 
 N -4.90251855000000 1.43833199687500 7.51856827812500 
 N -4.89557655000000 5.17267299687500 7.64809527812500 
 S -5.56456555000000 0.759152996875001 6.17805727812500 
 S -5.67623955000000 4.80533099687500 6.17724927812500 
 S -2.43553455000000 1.21139899687500 3.41342127812500 
 S -2.60340455000000 5.09415599687500 3.45521227812500 
 S -3.35229355000000 1.96857299687500 7.36742427812500 
 S -3.26372355000000 5.58943799687500 7.48052627812500 
