16  
    
  C     2.141043  4.500341  3.045250
  C     2.076942  8.137717  3.190807
  C     0.982780  3.908952  2.402584
  C     0.895989  7.593629  2.483582
  N     3.154808  4.670974  2.194724
  N     3.164203  8.162660  2.414228
  N     1.086669  3.620931  1.092923
  N     1.059050  7.145017  1.256366
  N     0.211034  4.476747  4.853632
  N     0.038203  8.246950  4.837097
  S    -0.462560  3.963215  3.429729
  S    -0.563259  7.490281  3.414213
  S     2.701429  4.006103  0.734513
  S     2.665518  7.569472  0.905567
  S     1.905922  4.771697  4.665290
  S     1.708526  8.406251  4.877617
