16  
    
  C     3.216970  5.118086  3.392030
  C     3.354715  9.215709  3.703175
  C     1.972633  4.727569  2.731848
  C     2.158301  8.830102  3.025605
  N     4.242039  5.344243  2.534110
  N     4.467539  9.282379  2.952653
  N     2.162545  4.461786  1.422890
  N     2.315335  8.643424  1.708453
  N     1.332103  4.720405  5.255371
  N     1.314447  8.795227  5.463508
  S     0.661756  4.365792  3.784236
  S     0.717845  8.612595  3.863395
  S     3.755458  4.809863  1.067147
  S     3.929051  8.941320  1.355079
  S     2.890641  5.340778  5.167577
  S     2.950375  9.270990  5.470121
