16  
    
  C    -0.373891  3.208708  2.660527
  C    -0.322020  6.992694  2.437929
  C    -1.600044  2.749833  2.046084
  C    -1.482265  6.178000  1.959070
  N     0.682864  3.361094  1.864131
  N     0.651707  7.127776  1.539863
  N    -1.391105  2.419350  0.774870
  N    -1.288331  5.919799  0.661692
  N    -2.056213  2.891075  4.613884
  N    -1.994304  6.869284  4.437724
  S    -2.862458  2.449059  3.181981
  S    -2.688018  5.985453  3.202187
  S     0.137152  2.962436  0.347944
  S     0.163174  6.478578  0.131795
  S    -0.541427  3.529391  4.359762
  S    -0.519370  7.506629  4.079016
