16  
    
  C    -2.556473  2.050105  2.044708
  C    -2.537710  5.748593  2.131879
  C    -3.827629  1.805994  1.400482
  C    -3.681527  5.362667  1.410280
  N    -1.555033  2.157867  1.182564
  N    -1.438189  5.877540  1.343891
  N    -3.767318  1.658978  0.070877
  N    -3.493804  5.154769  0.111112
  N    -4.385702  2.108471  3.875014
  N    -4.505612  5.936030  3.783717
  S    -5.228058  2.003913  2.418474
  S    -5.062679  5.284204  2.391748
  S    -2.161496  1.998383 -0.330096
  S    -1.868636  5.322400 -0.190881
  S    -2.737917  2.404483  3.698245
  S    -2.848310  6.080571  3.857928
