16  
    
  C    -5.426898  1.065396  1.594889
  C    -5.213067  4.740255  1.471140
  C    -6.682341  0.882721  1.003498
  C    -6.479212  4.430343  0.887972
  N    -4.380570  1.073350  0.758282
  N    -4.222030  4.666725  0.598846
  N    -6.554866  0.691251 -0.304214
  N    -6.397296  4.030365 -0.376211
  N    -7.184513  1.085159  3.513484
  N    -6.802191  4.688962  3.425916
  S    -8.068630  0.889421  2.034524
  S    -7.724620  4.393006  2.037536
  S    -5.026976  0.878472 -0.723872
  S    -4.784134  4.145266 -0.842999
  S    -5.515841  1.296826  3.303363
  S    -5.225869  5.099115  3.127844
