16  
    
  C     1.529281  4.395649  3.443911
  C     1.397958  7.990112  3.105988
  C     0.228258  4.059180  2.942783
  C     0.150155  7.628999  2.443065
  N     2.519339  4.384284  2.530118
  N     2.440949  8.047374  2.288662
  N     0.125694  4.076227  1.619967
  N     0.274958  7.609838  1.139325
  N    -0.126302  4.691731  5.461796
  N    -0.416609  7.816058  4.906098
  S    -1.003988  4.196844  4.143397
  S    -1.180573  7.372764  3.467764
  S     1.726388  4.130400  1.032551
  S     1.873527  7.911577  0.744069
  S     1.540431  4.846951  5.115869
  S     1.182721  8.203438  4.808982
