16  
    
  C    -3.528538  1.960810  1.578858
  C    -3.905386  5.283120  1.587926
  C    -4.688665  1.380007  1.000187
  C    -5.113301  4.701210  1.090868
  N    -2.539386  2.156292  0.744218
  N    -2.884297  5.443726  0.719032
  N    -4.612246  1.199813 -0.319005
  N    -5.108784  4.585660 -0.217057
  N    -5.217616  1.557043  3.612568
  N    -5.586858  5.034461  3.627358
  S    -5.901065  0.967322  2.208898
  S    -6.430898  4.455096  2.254654
  S    -3.102692  1.722352 -0.760927
  S    -3.578467  4.882365 -0.758923
  S    -3.664216  2.131876  3.336481
  S    -4.042427  5.573419  3.308575
