16  
    
  C     3.154169  5.116779  3.501324
  C     3.517045  8.944964  3.794991
  C     1.922101  4.717447  2.814255
  C     2.265817  8.797823  3.094331
  N     4.218336  5.009916  2.727611
  N     4.567228  8.814162  2.922647
  N     2.045754  4.611624  1.485233
  N     2.349272  8.679614  1.783434
  N     1.389750  5.142555  5.245098
  N     1.594749  9.220310  5.504915
  S     0.537426  4.748160  3.887907
  S     0.815012  8.958182  4.065495
  S     3.663184  4.692865  1.175011
  S     3.880425  8.708077  1.421317
  S     3.089108  5.220439  5.200792
  S     3.253203  9.253157  5.501332
