16  
    
  C     1.889685  4.255657  3.357631
  C     1.828124  7.796872  3.054332
  C     0.638029  3.941144  2.703828
  C     0.570572  7.518948  2.463486
  N     2.928854  4.335365  2.521495
  N     2.779724  8.023547  2.162269
  N     0.651328  4.205830  1.372258
  N     0.526082  7.599204  1.149014
  N     0.130402  3.928229  5.237558
  N     0.113949  7.297317  4.983601
  S    -0.731265  3.866225  3.805965
  S    -0.746650  7.090870  3.529328
  S     2.313798  4.252801  0.959258
  S     2.038097  7.980256  0.664703
  S     1.829873  4.230536  4.994775
  S     1.714379  7.736766  4.791361
