16  
    
  C    -5.550981  0.775735  1.506342
  C    -5.491355  4.675433  1.271036
  C    -6.811921  0.467011  0.869610
  C    -6.713490  4.235164  0.683699
  N    -4.490231  0.899687  0.730840
  N    -4.602157  4.976612  0.335888
  N    -6.653346  0.245243 -0.431599
  N    -6.715141  4.083825 -0.640742
  N    -7.427608  0.690870  3.340615
  N    -7.065306  4.284707  3.220334
  S    -8.133709  0.267470  1.868823
  S    -7.961855  4.000300  1.841449
  S    -5.075579  0.596147 -0.823819
  S    -5.219898  4.647105 -1.183340
  S    -5.778668  1.072724  3.187532
  S    -5.585687  5.052086  3.003947
