16  
    
  C     2.995770  5.283779  3.858329
  C     2.610283  8.469272  3.174829
  C     1.677271  5.190078  3.245777
  C     1.328260  8.212849  2.591407
  N     3.971883  5.167382  2.948675
  N     3.612342  8.496237  2.345927
  N     1.662593  4.628917  2.030731
  N     1.351885  8.065413  1.257271
  N     1.283714  5.569296  5.761382
  N     1.052656  8.966344  5.102598
  S     0.432488  5.390524  4.407466
  S     0.154972  8.262155  3.875881
  S     3.245469  4.695192  1.465589
  S     3.002210  8.241841  0.827867
  S     2.901683  5.774317  5.562770
  S     2.666091  9.063918  4.720958
