16  
    
  C     2.996506  5.410567  3.943781
  C     2.391327  8.589140  3.227899
  C     1.740709  5.026975  3.359621
  C     1.205494  8.073356  2.575138
  N     3.982046  5.491662  3.024514
  N     3.402686  8.774879  2.446228
  N     1.878654  4.485882  2.145638
  N     1.415167  7.731537  1.300698
  N     1.140000  5.660034  5.717968
  N     0.712147  8.256506  5.150220
  S     0.402247  4.845755  4.468483
  S    -0.183352  8.049910  3.717670
  S     3.423227  4.780868  1.600517
  S     3.045915  8.177143  0.970704
  S     2.752473  5.849533  5.649747
  S     2.349124  8.801563  4.871979
