16  
    
  C    -3.077503  2.164250  1.736307
  C    -2.983892  5.875519  1.976506
  C    -4.192592  1.603845  0.979543
  C    -4.267395  5.477486  1.467230
  N    -2.052074  2.508110  0.970806
  N    -2.106614  6.115400  1.031549
  N    -4.005753  1.506464 -0.346009
  N    -4.371748  5.319685  0.147112
  N    -4.993740  1.598851  3.518604
  N    -4.564795  5.494242  4.008881
  S    -5.495918  0.984917  2.058011
  S    -5.502100  5.313153  2.602018
  S    -2.487116  2.019935 -0.622335
  S    -2.840309  5.733312 -0.379541
  S    -3.409261  2.250249  3.453495
  S    -3.012674  6.038656  3.753114
