16  
    
  C     3.024138  5.327965  3.404453
  C     3.676725  8.991503  3.418099
  C     1.943114  4.640767  2.804340
  C     2.434407  8.514017  2.870984
  N     4.115415  5.423664  2.612269
  N     4.512607  9.153974  2.381609
  N     2.036008  4.439927  1.503562
  N     2.308476  8.381094  1.564982
  N     1.315489  4.934811  5.219631
  N     1.985490  8.954551  5.347334
  S     0.610841  4.306787  3.828418
  S     1.145800  8.571141  4.019208
  S     3.545422  4.998127  1.133981
  S     3.782241  8.739032  0.949450
  S     2.850814  5.502721  5.070029
  S     3.565489  9.421908  5.160055
