16  
    
  C     3.028264  4.974301  3.235579
  C     3.005463  9.258340  3.780526
  C     1.791248  4.522252  2.628413
  C     1.829460  8.704402  3.103188
  N     3.944619  5.309194  2.338468
  N     4.036880  9.410956  2.944492
  N     1.853606  4.362571  1.308349
  N     2.007036  8.370076  1.875193
  N     1.147098  5.008366  5.079541
  N     1.120846  8.681437  5.489160
  S     0.469996  4.309324  3.766199
  S     0.485058  8.223590  4.036384
  S     3.358476  4.784210  0.837774
  S     3.453243  8.965422  1.381011
  S     2.754698  5.431543  4.901171
  S     2.581530  9.442444  5.490591
