16  
    
  C    -3.577544  2.069386  1.645444
  C    -3.938423  5.250359  1.645291
  C    -4.745635  1.455789  1.087189
  C    -5.185684  4.712402  1.072501
  N    -2.566195  2.246973  0.782393
  N    -2.985360  5.406515  0.747224
  N    -4.690982  1.325045 -0.234827
  N    -5.087467  4.443396 -0.240087
  N    -5.140109  1.462341  3.547578
  N    -5.628711  5.009349  3.564344
  S    -5.973888  0.980753  2.200124
  S    -6.424651  4.426649  2.257307
  S    -3.151436  1.770659 -0.683822
  S    -3.531904  4.909022 -0.734949
  S    -3.660081  2.142672  3.374122
  S    -4.053282  5.570713  3.333160
