16  
    
  C    -4.399826  1.345589  1.903864
  C    -4.496982  4.839115  1.726143
  C    -5.600822  0.769360  1.352674
  C    -5.655494  4.332961  0.954883
  N    -3.510802  1.781839  1.022752
  N    -3.506668  5.315981  0.922045
  N    -5.611410  0.699776  0.015333
  N    -5.459557  4.339192 -0.380845
  N    -5.919749  0.862957  3.912258
  N    -6.490520  4.202296  3.437806
  S    -6.800131  0.444535  2.546955
  S    -7.018409  3.784225  1.863523
  S    -4.115020  1.471252 -0.491548
  S    -4.023351  5.025257 -0.636280
  S    -4.426730  1.543297  3.728673
  S    -4.933567  4.850739  3.450066
