16  
    
  C     0.797106  3.617709  2.796920
  C     0.541783  7.628994  2.722058
  C    -0.576835  3.383994  2.264365
  C    -0.637111  6.917555  2.229660
  N     1.653743  4.085841  1.878714
  N     1.476498  7.792823  1.793775
  N    -0.522969  3.322116  0.926269
  N    -0.494385  6.640594  0.943297
  N    -0.985372  3.549098  4.757891
  N    -0.955525  7.283468  4.813703
  S    -1.865721  3.237501  3.409024
  S    -1.783616  6.635801  3.502608
  S     0.966740  3.686588  0.442545
  S     0.965387  7.194013  0.344063
  S     0.651438  3.804309  4.554479
  S     0.461895  8.112261  4.366620
