16  
    
  C     2.155634  4.461010  2.940594
  C     2.132369  8.581170  3.052782
  C     0.873049  4.169089  2.286194
  C     0.985671  7.884383  2.492061
  N     3.185012  4.646626  2.109149
  N     3.196824  8.744805  2.262137
  N     0.938730  4.041076  0.985892
  N     1.200754  7.427227  1.244928
  N     0.365243  4.421171  4.806228
  N     0.415838  8.477543  4.926627
  S    -0.371058  3.788246  3.420674
  S    -0.387594  7.859301  3.636828
  S     2.565584  4.276443  0.564791
  S     2.797928  7.986074  0.831414
  S     1.972004  4.701412  4.753819
  S     1.982766  8.990712  4.722593
