16  
    
  C     2.968211  4.955681  3.691770
  C     2.807759  8.917087  3.296376
  C     1.638539  4.960858  3.114426
  C     1.560401  8.449616  2.713878
  N     3.933357  4.874850  2.768637
  N     3.897244  8.813664  2.566030
  N     1.590121  4.887390  1.786965
  N     1.744641  7.957624  1.530583
  N     1.260113  5.554280  5.640555
  N     1.170241  8.771576  5.213645
  S     0.383503  5.312618  4.232064
  S     0.259752  8.529056  3.882815
  S     3.171306  4.750454  1.265807
  S     3.386748  8.153056  1.083867
  S     2.921632  5.385878  5.394535
  S     2.737938  9.014438  5.024274
