16  
    
  C    -2.572766  2.521671  2.353922
  C    -2.717882  5.831159  2.050398
  C    -3.677731  1.824251  1.725882
  C    -3.896023  5.398067  1.310948
  N    -1.653348  2.914017  1.471776
  N    -1.715245  6.115076  1.266373
  N    -3.624234  1.778670  0.391608
  N    -3.784527  5.417199  0.029427
  N    -4.395413  2.019681  4.203214
  N    -4.540570  5.527295  3.797870
  S    -5.070360  1.415560  2.775297
  S    -5.147870  4.930757  2.343533
  S    -2.230356  2.592264 -0.036912
  S    -2.195833  5.803204 -0.291688
  S    -2.818758  2.547017  4.077153
  S    -2.876348  5.843487  3.774411
