16  
    
  C     1.232278  4.284492  3.094366
  C     1.631672  8.242921  2.996247
  C    -0.038793  4.099485  2.463110
  C     0.363910  8.085443  2.327162
  N     2.219954  4.625114  2.231639
  N     2.721535  8.108200  2.242397
  N     0.019258  4.001945  1.113677
  N     0.522027  7.917436  1.021609
  N    -0.577560  4.175372  4.961738
  N    -0.068634  8.302522  4.864736
  S    -1.304830  3.702729  3.589653
  S    -0.943420  8.102488  3.488111
  S     1.538158  4.425872  0.741130
  S     2.115054  7.860678  0.669008
  S     1.082384  4.540892  4.900184
  S     1.559050  8.478307  4.713737
