16  
    
  C     2.063208  4.502770  3.333193
  C     1.609230  7.692869  3.078459
  C     0.814138  4.130296  2.687574
  C     0.381858  7.444322  2.345713
  N     2.966400  4.991518  2.459213
  N     2.642791  7.936964  2.309532
  N     0.902429  3.925248  1.348107
  N     0.595024  7.453201  1.046338
  N     0.365267  4.025067  5.173394
  N    -0.216049  7.558962  4.827929
  S    -0.479189  3.674025  3.817155
  S    -1.009422  7.359957  3.395663
  S     2.392478  4.536372  0.916237
  S     2.176489  7.717245  0.727393
  S     1.897481  4.587781  5.043188
  S     1.402018  7.745845  4.751806
