16  
    
  C     2.277548  4.691031  3.168203
  C     2.078282  8.996781  3.400635
  C     1.017882  4.272742  2.560061
  C     0.880542  8.459418  2.740591
  N     3.264203  4.968614  2.299018
  N     3.120678  9.190968  2.627076
  N     0.986799  4.451905  1.245926
  N     1.091587  8.137318  1.466599
  N     0.568608  4.259272  5.057290
  N     0.411939  8.457826  5.292936
  S    -0.313130  3.952578  3.741214
  S    -0.478721  8.340331  3.876579
  S     2.535438  4.967432  0.796045
  S     2.681652  8.589987  1.171480
  S     2.131102  4.720775  4.921263
  S     1.971907  9.027809  5.149467
