16  
    
  C    -1.173850  3.324031  2.155173
  C    -1.097143  7.066628  2.602865
  C    -2.454422  2.807490  1.595511
  C    -2.357640  6.818393  1.999780
  N    -0.363237  3.760319  1.210406
  N    -0.076489  7.160475  1.756899
  N    -2.437054  2.530387  0.304451
  N    -2.297058  6.827693  0.701589
  N    -2.698652  2.921630  4.193298
  N    -2.831469  6.643130  4.506399
  S    -3.626485  2.474570  2.870127
  S    -3.684553  6.601745  3.053256
  S    -0.937133  3.107747 -0.242191
  S    -0.712135  6.855509  0.270672
  S    -1.114600  3.380248  3.886559
  S    -1.173397  7.075810  4.348669
