16  
    
  C     2.971975  5.211220  3.951023
  C     2.663022  8.649333  3.112550
  C     1.692892  4.954336  3.359183
  C     1.352717  8.305410  2.625202
  N     3.994340  5.328711  3.128797
  N     3.637217  8.566950  2.214579
  N     1.766969  4.707404  2.058009
  N     1.332887  7.935720  1.372547
  N     1.239159  5.789868  5.702715
  N     0.889543  8.588665  5.151766
  S     0.359459  5.152835  4.449916
  S     0.062096  8.166962  3.682676
  S     3.370817  4.830898  1.640736
  S     2.842342  8.139496  0.748748
  S     2.890258  5.908925  5.493429
  S     2.527334  8.905913  4.877778
