16  
    
  C     1.891447  4.225911  3.301594
  C     1.795104  7.836485  3.044540
  C     0.603136  4.035217  2.699778
  C     0.465786  7.575571  2.439990
  N     2.944820  4.354852  2.535075
  N     2.821346  7.974584  2.161272
  N     0.685798  4.225337  1.424701
  N     0.442270  7.609029  1.101831
  N     0.196847  3.933619  5.218016
  N     0.086993  7.325690  4.941080
  S    -0.716135  3.795868  3.810986
  S    -0.772165  7.096370  3.528810
  S     2.349080  4.307691  0.965348
  S     2.057597  7.936699  0.695706
  S     1.814229  4.250546  5.061547
  S     1.704177  7.706280  4.787097
