16  
    
  C     0.890300  3.895185  2.512593
  C     1.582854  8.210215  3.267848
  C    -0.367570  3.483599  1.869568
  C     0.277270  8.002076  2.614638
  N     1.814517  4.209178  1.607718
  N     2.564014  8.329938  2.360606
  N    -0.183818  3.133838  0.608643
  N     0.277950  7.941024  1.272418
  N    -0.845887  3.730499  4.374453
  N    -0.229393  8.135995  5.154318
  S    -1.593918  3.151153  3.019008
  S    -1.082797  7.974597  3.765723
  S     1.331441  3.653013  0.192964
  S     1.914060  8.204924  0.867268
  S     0.748730  4.182191  4.173788
  S     1.413337  8.176803  5.045781
