16  
    
  C    -1.469171  2.678348  2.258508
  C    -1.337844  6.740261  2.168641
  C    -2.515867  1.947812  1.520959
  C    -2.644148  6.213812  1.647082
  N    -0.514313  3.004119  1.428986
  N    -0.290577  6.730018  1.369033
  N    -2.265757  1.653010  0.259150
  N    -2.546303  5.838845  0.377216
  N    -3.404416  2.471486  3.914616
  N    -2.935302  6.296382  4.124682
  S    -3.925020  1.708150  2.518274
  S    -3.902819  6.157104  2.811862
  S    -0.818421  2.353440 -0.050122
  S    -1.007877  6.268178 -0.079963
  S    -1.839132  3.017113  3.914010
  S    -1.389515  6.894495  3.872417
