16  
    
  C     2.907771  5.267119  3.585421
  C     2.923065  8.878003  3.458615
  C     1.728531  4.826875  2.841693
  C     1.804724  8.312481  2.791240
  N     4.000263  5.473387  2.855486
  N     4.044018  9.073219  2.694999
  N     1.941130  4.924287  1.530799
  N     2.066914  8.046057  1.507772
  N     1.101259  4.707093  5.407718
  N     1.009108  8.574683  5.129902
  S     0.294909  4.750955  3.966549
  S     0.385651  8.052115  3.692329
  S     3.544022  5.204553  1.239578
  S     3.583452  8.568518  1.125625
  S     2.676714  5.344244  5.328050
  S     2.654302  8.791878  5.200492
