16  
    
  C    -0.291983  3.225376  2.544626
  C    -0.249052  6.964607  2.337889
  C    -1.593466  2.973142  1.979081
  C    -1.552441  6.538744  1.693550
  N     0.628669  3.551015  1.606808
  N     0.699956  7.193913  1.451926
  N    -1.592760  2.632579  0.673028
  N    -1.510863  6.518357  0.357716
  N    -2.029104  3.176383  4.500671
  N    -1.892682  6.707357  4.216079
  S    -2.923698  2.918992  3.105010
  S    -2.804097  6.505091  2.844660
  S    -0.089457  3.048635  0.143152
  S     0.028540  6.843316 -0.036185
  S    -0.398110  3.420606  4.257496
  S    -0.275371  7.157857  4.007079
