16  
    
  C    -5.441438  1.076612  1.307961
  C    -5.422147  4.879189  1.539220
  C    -6.562265  0.476935  0.605213
  C    -6.497139  4.274907  0.819453
  N    -4.415767  1.409208  0.515016
  N    -4.379175  5.200528  0.755511
  N    -6.391683  0.467104 -0.710968
  N    -6.298458  4.260357 -0.518000
  N    -7.144816  0.466778  3.059852
  N    -7.139133  4.301686  3.320115
  S    -7.941427  0.132118  1.643242
  S    -7.903441  4.080464  1.881356
  S    -4.932536  1.144948 -1.055090
  S    -4.783368  4.925841 -0.828111
  S    -5.685783  1.185560  2.982228
  S    -5.692322  5.171793  3.221570
