16  
    
  C     0.029352  3.662058  2.727162
  C     0.336948  7.347027  2.677551
  C    -1.020903  2.862148  2.027077
  C    -0.959167  7.245232  2.016053
  N     1.103510  3.801054  1.974467
  N     1.356948  7.592489  1.845728
  N    -0.800435  2.787062  0.694443
  N    -0.898330  7.335855  0.677423
  N    -1.632760  3.157481  4.542653
  N    -1.439016  7.304432  4.547183
  S    -2.321343  2.578969  3.096158
  S    -2.332074  7.209978  3.101483
  S     0.746461  3.405408  0.414010
  S     0.680482  7.498661  0.338421
  S    -0.177469  3.859425  4.422116
  S     0.208096  7.518055  4.396352
