16  
    
  C     1.062080  4.103905  2.634224
  C     1.091847  7.891282  3.125119
  C    -0.070238  3.497807  2.064824
  C    -0.101239  7.448462  2.517754
  N     2.058193  4.337174  1.781607
  N     2.175136  7.941993  2.326031
  N     0.079439  2.974695  0.843757
  N    -0.041596  7.244082  1.189580
  N    -0.860745  4.239295  4.376294
  N    -0.618309  7.712815  5.109965
  S    -1.415197  3.322477  3.150580
  S    -1.441595  7.413195  3.716632
  S     1.640390  3.462278  0.391599
  S     1.530421  7.515440  0.796412
  S     0.771846  4.727900  4.225227
  S     0.988592  8.070197  4.846603
