16  
    
  C    -3.448444  1.750399  1.730626
  C    -3.645075  5.674817  1.744117
  C    -4.559370  1.057802  1.088866
  C    -4.835057  5.210510  1.038305
  N    -2.425711  1.977488  0.923393
  N    -2.632422  5.941285  0.933313
  N    -4.390422  0.725872 -0.180293
  N    -4.700034  5.237634 -0.290178
  N    -5.253404  1.517723  3.632204
  N    -5.459506  5.064904  3.592265
  S    -5.868287  0.779114  2.237182
  S    -6.157373  4.944566  2.115780
  S    -2.872796  1.331808 -0.608106
  S    -3.092741  5.640137 -0.578489
  S    -3.668491  2.118070  3.463522
  S    -3.871366  5.671314  3.463786
