16  
    
  C     1.594377  4.466429  3.384716
  C     1.369838  7.943644  3.098946
  C     0.275934  4.072319  2.929620
  C     0.177770  7.571361  2.451524
  N     2.620816  4.330659  2.513028
  N     2.416428  8.163248  2.316641
  N     0.234988  4.062483  1.582867
  N     0.337689  7.550748  1.134389
  N    -0.106994  4.693462  5.470771
  N    -0.413200  7.762720  4.896060
  S    -1.041888  4.200409  4.119627
  S    -1.180277  7.296578  3.475693
  S     1.761874  4.093252  1.067752
  S     1.864560  7.934565  0.738057
  S     1.561870  4.863095  5.124076
  S     1.204153  8.217235  4.763984
