16  
    
  C    -0.674031  3.141586  2.769452
  C    -1.359597  6.589147  2.604160
  C    -1.902850  2.648116  2.120608
  C    -2.430730  5.987741  1.829658
  N     0.314035  3.305706  1.883865
  N    -0.302605  6.841894  1.866658
  N    -1.744703  2.348679  0.838611
  N    -2.230329  5.933662  0.524163
  N    -2.453804  3.078802  4.605511
  N    -3.189970  6.083806  4.322989
  S    -3.316341  2.787113  3.216126
  S    -3.776766  5.608010  2.865241
  S    -0.156016  2.633725  0.476750
  S    -0.675851  6.598724  0.280330
  S    -0.818169  3.407371  4.424300
  S    -1.615519  6.641209  4.305827
