16  
    
  C     3.159069  5.161485  3.435741
  C     3.290825  9.078084  3.684458
  C     2.054061  4.594524  2.729763
  C     2.075094  8.780489  2.957241
  N     4.191907  5.376503  2.627824
  N     4.402854  9.141014  2.908369
  N     2.150360  4.441561  1.423678
  N     2.327143  8.587498  1.613582
  N     1.343813  4.747068  5.174496
  N     1.400919  8.917530  5.388943
  S     0.639334  4.268097  3.722820
  S     0.642761  8.550371  4.022317
  S     3.696222  4.850586  1.068448
  S     3.890690  8.964710  1.352661
  S     2.904124  5.376673  5.165668
  S     2.996942  9.260809  5.373770
