16  
    
  C    -2.405645  1.976434  1.999837
  C    -2.594892  5.724790  2.074105
  C    -3.700365  1.767062  1.454717
  C    -3.828747  5.390628  1.378411
  N    -1.341654  1.840212  1.215211
  N    -1.564371  5.757049  1.287741
  N    -3.646388  1.678535  0.125707
  N    -3.738857  5.150757  0.077642
  N    -4.093365  2.281995  4.032359
  N    -4.375435  5.466426  3.912503
  S    -4.966204  2.109256  2.638222
  S    -5.109132  5.065745  2.489511
  S    -2.055931  1.764390 -0.330196
  S    -2.101000  5.463301 -0.220150
  S    -2.433937  2.368046  3.717186
  S    -2.707653  5.814623  3.792959
