16  
    
  C     1.923303  4.277304  3.079061
  C     1.986197  7.990043  3.116505
  C     0.649824  4.080144  2.453913
  C     0.792313  7.613568  2.421326
  N     2.940899  4.180554  2.231968
  N     3.036678  8.197396  2.317515
  N     0.680165  3.830336  1.153886
  N     0.879885  7.490917  1.115071
  N     0.215877  4.262960  5.096318
  N     0.171790  7.535114  4.947621
  S    -0.692149  3.982969  3.649675
  S    -0.534731  7.234887  3.464322
  S     2.280700  3.974597  0.749070
  S     2.473644  7.867591  0.745349
  S     1.874143  4.577725  4.817530
  S     1.770933  8.022348  4.876734
