16  
    
  C    -2.711361  2.578860  2.315002
  C    -2.722131  6.418343  1.948625
  C    -3.784889  1.839138  1.718837
  C    -3.802620  5.786109  1.249969
  N    -1.771511  2.889272  1.415662
  N    -1.665518  6.788867  1.223458
  N    -3.739343  1.714843  0.381597
  N    -3.534017  5.581761  0.008971
  N    -4.396358  2.198501  4.231430
  N    -4.523660  5.647371  3.701970
  S    -5.079117  1.550934  2.810256
  S    -5.203130  5.319433  2.195631
  S    -2.291091  2.400902 -0.039705
  S    -2.037445  6.128816 -0.334826
  S    -2.875626  2.869333  4.021477
  S    -2.963520  6.362527  3.675905
