16  
    
  C    -1.907180  2.450537  2.523342
  C    -1.834996  5.923555  2.327592
  C    -3.041634  1.900981  1.867307
  C    -3.058418  5.577607  1.709566
  N    -0.799532  2.594784  1.790638
  N    -0.907457  6.342854  1.467061
  N    -2.901738  1.863018  0.553468
  N    -3.015229  5.552202  0.369702
  N    -3.696095  2.082766  4.298800
  N    -3.386762  5.653343  4.247454
  S    -4.398159  1.611806  2.885288
  S    -4.296224  5.454462  2.853664
  S    -1.280900  2.226549  0.239992
  S    -1.447363  5.954084 -0.042393
  S    -2.103490  2.570226  4.279251
  S    -1.770586  6.122880  4.040093
