16  
    
  C    -5.534282  0.915596  1.462778
  C    -5.419734  4.927039  1.217892
  C    -6.750598  0.408237  0.819255
  C    -6.613245  4.282768  0.667788
  N    -4.490006  1.004840  0.658506
  N    -4.436354  5.157489  0.341927
  N    -6.659347  0.259443 -0.525012
  N    -6.587136  4.139645 -0.669709
  N    -7.349020  0.862513  3.232505
  N    -6.859523  4.329071  3.219636
  S    -8.097038  0.203913  1.938662
  S    -7.789387  3.925676  1.924357
  S    -5.057873  0.603904 -0.844567
  S    -5.073469  4.641926 -1.086150
  S    -5.712443  1.010510  3.194121
  S    -5.385488  5.025191  2.907526
