16  
    
  C    -4.217378  1.357499  1.820119
  C    -4.093707  5.109775  1.992227
  C    -5.466714  1.306480  1.050673
  C    -5.414990  4.812088  1.375401
  N    -3.120099  1.408329  1.093960
  N    -3.147030  5.056322  1.054579
  N    -5.273885  1.077421 -0.250688
  N    -5.354951  4.508995  0.073578
  N    -6.112617  1.568311  3.607980
  N    -5.888155  5.358739  3.878612
  S    -6.814274  1.240922  2.156774
  S    -6.722973  5.024863  2.521419
  S    -3.572354  1.151248 -0.531102
  S    -3.777760  4.785985 -0.417137
  S    -4.444381  1.492030  3.559614
  S    -4.240134  5.395499  3.745531
