16  
    
  C     3.223154  5.109759  3.394501
  C     3.356266  9.212132  3.700102
  C     1.967852  4.727859  2.731634
  C     2.162523  8.831610  3.016155
  N     4.238696  5.352708  2.532152
  N     4.462662  9.270305  2.949026
  N     2.167048  4.460680  1.419835
  N     2.319150  8.639175  1.710097
  N     1.328932  4.715140  5.250430
  N     1.313967  8.802196  5.464360
  S     0.660753  4.360048  3.780774
  S     0.710580  8.607048  3.870477
  S     3.751551  4.809984  1.067121
  S     3.925334  8.943852  1.352990
  S     2.892024  5.345504  5.171644
  S     2.952219  9.270035  5.465592
