16  
    
  C     1.989968  4.472475  3.283294
  C     1.556348  7.888340  3.064810
  C     0.740340  4.174386  2.639013
  C     0.381513  7.558372  2.335404
  N     3.040884  4.682555  2.481888
  N     2.618117  8.025771  2.300706
  N     0.867464  3.879009  1.327444
  N     0.543313  7.502572  1.039352
  N     0.410240  4.195526  5.169310
  N    -0.296692  7.614997  4.778771
  S    -0.376468  3.685409  3.816579
  S    -0.928553  7.140269  3.338618
  S     2.449203  4.426192  0.918583
  S     2.138264  7.750378  0.732635
  S     1.832080  4.882842  4.979478
  S     1.312573  8.000222  4.797981
