16  
    
  C    -2.685686  2.512956  2.315665
  C    -2.720160  6.507721  1.967925
  C    -3.764964  1.861444  1.688972
  C    -3.782213  5.815217  1.220415
  N    -1.783489  2.895897  1.433259
  N    -1.648060  6.773124  1.226402
  N    -3.735782  1.693056  0.386442
  N    -3.499545  5.551364 -0.015098
  N    -4.392098  2.211813  4.197433
  N    -4.528393  5.711645  3.722465
  S    -5.092868  1.587241  2.798768
  S    -5.178545  5.334348  2.207590
  S    -2.296108  2.389791 -0.062171
  S    -2.035871  6.134764 -0.331618
  S    -2.866862  2.881274  4.010283
  S    -2.974940  6.375671  3.686504
