16  
    
  C    -2.918147  2.361011  1.905122
  C    -2.746834  5.952753  2.027487
  C    -4.051628  1.945971  1.152659
  C    -4.015052  5.502525  1.491539
  N    -1.871873  2.655699  1.141140
  N    -1.726027  5.965601  1.149541
  N    -3.879002  1.751007 -0.171546
  N    -3.931425  5.169322  0.197377
  N    -4.737270  1.840549  3.646794
  N    -4.518285  5.774701  3.935173
  S    -5.406386  1.482201  2.142915
  S    -5.316354  5.191568  2.545103
  S    -2.318693  2.215422 -0.415747
  S    -2.376583  5.554536 -0.292706
  S    -3.131291  2.336540  3.633176
  S    -2.922085  6.193687  3.743631
