16  
    
  C     0.770361  3.727539  2.824160
  C     0.559013  7.589803  2.722330
  C    -0.532663  3.352947  2.274504
  C    -0.589441  6.946929  2.247953
  N     1.690995  4.037140  1.902889
  N     1.472551  7.807366  1.788424
  N    -0.510315  3.327403  0.975815
  N    -0.543741  6.591939  0.947773
  N    -1.016310  3.568717  4.747691
  N    -0.922893  7.282062  4.799325
  S    -1.873464  3.234571  3.423667
  S    -1.785950  6.637033  3.516926
  S     1.001455  3.681945  0.449102
  S     0.970011  7.172314  0.381174
  S     0.648729  3.875857  4.565132
  S     0.466178  8.109392  4.341799
