16  
    
  C     3.027622  4.984608  3.234390
  C     2.994506  9.253821  3.778008
  C     1.793356  4.516411  2.623400
  C     1.822302  8.711372  3.107423
  N     3.951459  5.302365  2.341093
  N     4.039606  9.406430  2.946876
  N     1.856531  4.369534  1.306640
  N     2.011190  8.378553  1.873720
  N     1.146623  5.006569  5.078622
  N     1.122715  8.686614  5.500310
  S     0.472246  4.317607  3.763876
  S     0.485410  8.227064  4.042920
  S     3.359988  4.782273  0.836414
  S     3.456415  8.961539  1.387274
  S     2.749178  5.428508  4.906213
  S     2.582351  9.443522  5.489886
