16  
    
  C    -4.392853  1.384861  1.903020
  C    -4.490403  4.848278  1.708181
  C    -5.582568  0.746524  1.350184
  C    -5.638683  4.317961  0.946384
  N    -3.475988  1.780451  0.994973
  N    -3.510605  5.331086  0.916616
  N    -5.595004  0.728083  0.012266
  N    -5.474320  4.353532 -0.388994
  N    -5.927795  0.862957  3.962761
  N    -6.496223  4.259499  3.462675
  S    -6.812431  0.464081  2.565092
  S    -7.024133  3.785392  1.887880
  S    -4.116617  1.464917 -0.505861
  S    -4.021163  5.015341 -0.655536
  S    -4.434643  1.557311  3.728392
  S    -4.934468  4.869282  3.479451
