16  
    
  C    -5.510117  1.082225  1.332098
  C    -5.282174  5.086281  1.382524
  C    -6.678313  0.627126  0.673563
  C    -6.319882  4.394374  0.747340
  N    -4.502899  1.382604  0.501777
  N    -4.304727  5.488576  0.561194
  N    -6.455691  0.440220 -0.638307
  N    -6.106863  4.174775 -0.559103
  N    -7.339545  0.649789  3.153972
  N    -6.870958  4.485485  3.259045
  S    -7.923740  0.022287  1.695029
  S    -7.450598  3.772036  1.886228
  S    -4.971022  0.972317 -0.989985
  S    -4.632990  4.921826 -0.970054
  S    -5.731436  1.115409  2.994240
  S    -5.399937  5.274525  3.127518
