16  
    
  C    -1.173222  3.038043  2.255974
  C    -0.934461  6.824110  2.471345
  C    -2.471399  2.707179  1.688022
  C    -2.234770  6.597017  1.875950
  N    -0.194441  3.050734  1.368135
  N    -0.020458  7.103270  1.548879
  N    -2.549317  2.817362  0.365913
  N    -2.266564  6.516094  0.528576
  N    -2.853429  3.101540  4.261269
  N    -2.657097  6.785052  4.354202
  S    -3.728099  2.727312  2.869279
  S    -3.579273  6.554261  3.019037
  S    -0.949548  2.915178 -0.142613
  S    -0.761765  6.903673  0.080363
  S    -1.199249  3.315688  4.000550
  S    -1.008211  7.039611  4.213619
