16  
    
  C    -1.820231  2.303558  2.033652
  C    -1.829945  6.091951  2.088481
  C    -3.067192  1.976986  1.321752
  C    -3.139183  5.718511  1.502436
  N    -0.701233  2.318186  1.294181
  N    -0.794793  6.279526  1.260800
  N    -2.858997  1.844475  0.015026
  N    -2.974729  5.483784  0.176054
  N    -3.686582  2.123060  3.766735
  N    -3.571014  5.752341  3.977291
  S    -4.431376  1.814967  2.312333
  S    -4.511444  5.721078  2.585520
  S    -1.271782  2.125867 -0.301318
  S    -1.428568  5.801776 -0.190238
  S    -2.057817  2.411177  3.747019
  S    -1.941675  6.186955  3.828260
