16  
    
  C     2.958383  5.105262  3.237417
  C     2.904976  9.130588  3.856269
  C     1.747239  4.739722  2.562470
  C     1.693871  8.719091  3.151475
  N     4.068819  5.206832  2.539941
  N     3.971406  9.252626  3.070402
  N     1.978951  4.517728  1.285658
  N     1.942411  8.487931  1.874222
  N     1.186273  4.973149  5.033832
  N     1.236722  8.895211  5.687564
  S     0.383543  4.517126  3.630934
  S     0.393531  8.395066  4.340133
  S     3.572017  4.753603  1.002619
  S     3.514570  8.827843  1.552216
  S     2.803978  5.333548  4.933816
  S     2.787824  9.404075  5.504667
