16  
    
  C    -2.005781  2.258841  1.986872
  C    -2.055238  5.827732  2.172357
  C    -3.263174  2.022237  1.363810
  C    -3.363537  5.546563  1.564005
  N    -0.989125  2.407854  1.144612
  N    -1.041065  5.901523  1.363191
  N    -3.167301  1.737670  0.063835
  N    -3.261907  5.641123  0.262844
  N    -3.805754  2.380983  3.839287
  N    -3.750995  5.756688  4.097514
  S    -4.585648  1.826594  2.481183
  S    -4.676951  5.482112  2.711281
  S    -1.602641  2.132586 -0.339433
  S    -1.616579  5.684319 -0.211103
  S    -2.147571  2.497224  3.735912
  S    -2.128515  6.094196  3.863111
