16  
    
  C    -4.430222  1.336927  1.980905
  C    -4.611492  4.857936  1.703869
  C    -5.609664  0.805001  1.326887
  C    -5.682283  4.325168  0.940974
  N    -3.566371  1.796142  1.088830
  N    -3.559527  5.217338  1.031915
  N    -5.558965  0.719289  0.005227
  N    -5.484829  4.334416 -0.351493
  N    -5.964953  0.865755  3.811712
  N    -6.380038  4.029050  3.285904
  S    -6.769976  0.361472  2.479115
  S    -7.023275  3.784636  1.801696
  S    -4.147314  1.430387 -0.400341
  S    -3.997237  5.058786 -0.575365
  S    -4.405366  1.448064  3.646189
  S    -4.923998  4.775114  3.351806
