16  
    
  C    -1.749100  2.244719  1.899444
  C    -1.858875  6.581905  2.042725
  C    -3.040301  2.123766  1.347908
  C    -2.908197  5.713037  1.536596
  N    -0.691984  2.367097  1.072905
  N    -0.730165  6.695001  1.315649
  N    -2.984779  1.985324  0.017305
  N    -2.593598  5.264422  0.318386
  N    -3.442870  2.298760  3.862565
  N    -3.475318  6.010158  3.999898
  S    -4.272431  1.806834  2.512108
  S    -4.304575  5.503737  2.634069
  S    -1.402443  2.263270 -0.441474
  S    -1.160656  5.914867 -0.107197
  S    -1.779467  2.523953  3.637297
  S    -2.144451  7.005075  3.730635
