16  
    
  C     2.030565  4.355427  3.060198
  C     2.064814  7.887852  3.184205
  C     0.785498  4.084347  2.373667
  C     0.894533  7.538264  2.427716
  N     3.019388  4.400469  2.226049
  N     3.156320  8.059387  2.439373
  N     0.856012  3.632499  1.130249
  N     1.009929  7.443077  1.082524
  N     0.273474  4.334480  4.917093
  N     0.089061  7.986641  4.874603
  S    -0.512924  3.930742  3.534488
  S    -0.547640  7.401499  3.441757
  S     2.523488  3.982027  0.682834
  S     2.694225  7.734130  0.879323
  S     1.921162  4.814753  4.718824
  S     1.706679  8.287710  4.866272
