16  
    
  C    -2.636649  2.598326  2.135158
  C    -2.471031  6.160972  2.124676
  C    -3.853998  2.117995  1.500054
  C    -3.609629  5.567739  1.434859
  N    -1.673408  2.813974  1.242672
  N    -1.398994  6.411895  1.322109
  N    -3.738875  1.743464  0.203082
  N    -3.422988  5.525557  0.105105
  N    -4.321475  2.476015  4.016266
  N    -4.457451  6.121677  3.711848
  S    -5.104407  1.865961  2.694508
  S    -5.041877  5.346696  2.375311
  S    -2.170309  2.184540 -0.216582
  S    -1.855737  6.109805 -0.212680
  S    -2.746899  2.858361  3.842521
  S    -2.896740  6.662964  3.687258
