16  
    
  C    -5.365194  1.295098  1.415885
  C    -5.355211  4.583249  1.594043
  C    -6.582323  0.901578  0.858097
  C    -6.653586  4.166724  1.079200
  N    -4.341369  1.204290  0.594463
  N    -4.466317  4.685166  0.654121
  N    -6.488558  0.698494 -0.453011
  N    -6.646345  3.943145 -0.212814
  N    -7.109267  1.090166  3.370674
  N    -6.858764  4.842958  3.497907
  S    -7.914461  0.776529  1.964976
  S    -7.813090  4.058328  2.318993
  S    -4.927206  0.737440 -0.838101
  S    -5.108887  4.329853 -0.790559
  S    -5.475799  1.320173  3.136235
  S    -5.206792  4.734310  3.291382
