16  
    
  C     2.077785  4.255008  3.348708
  C     1.718372  7.727235  3.064159
  C     0.757227  4.028883  2.719155
  C     0.426207  7.512703  2.391615
  N     3.016442  4.788316  2.517015
  N     2.728162  7.907458  2.241069
  N     0.854896  4.104425  1.376554
  N     0.533863  7.511949  1.074220
  N     0.256915  3.995548  5.174889
  N    -0.088752  7.474519  4.872557
  S    -0.611724  3.681084  3.825560
  S    -0.941335  7.297964  3.471371
  S     2.349193  4.547724  1.021653
  S     2.103002  7.809809  0.675745
  S     1.859339  4.359775  5.102650
  S     1.532423  7.632263  4.764946
