16  
    
  C     2.335330  4.735212  3.391687
  C     2.537749  8.658297  3.493522
  C     1.201438  4.244827  2.682229
  C     1.259739  8.298954  2.927162
  N     3.325324  5.137001  2.640911
  N     3.493215  8.781188  2.615514
  N     1.430518  4.145772  1.387403
  N     1.292065  8.218937  1.610970
  N     0.667693  4.268577  5.131710
  N     0.822102  8.649679  5.441778
  S    -0.096749  3.949497  3.711628
  S     0.005727  8.099641  4.120590
  S     2.941428  4.734324  1.093428
  S     2.818367  8.567213  1.114095
  S     2.177299  4.765445  5.103044
  S     2.447998  8.926787  5.194089
