16  
    
  C    -3.218982  1.834433  1.934356
  C    -3.205365  5.696004  2.112459
  C    -4.384332  1.582033  1.167150
  C    -4.336543  5.095573  1.502682
  N    -2.101834  1.917044  1.199104
  N    -2.250054  6.056521  1.230266
  N    -4.132371  1.330487 -0.136345
  N    -4.287596  5.030033  0.174839
  N    -5.137544  1.725145  3.652267
  N    -4.792144  5.186317  4.031210
  S    -5.752702  1.193213  2.224293
  S    -5.637273  4.754074  2.614735
  S    -2.462539  1.601878 -0.362967
  S    -2.732401  5.528075 -0.265208
  S    -3.522163  1.998927  3.651892
  S    -3.266027  5.815916  3.845715
