16  
    
  C     2.379571  4.784591  3.315310
  C     2.375997  8.629405  3.513309
  C     1.121900  4.437808  2.673295
  C     1.117753  8.348273  2.867617
  N     3.385434  5.143502  2.476895
  N     3.419565  8.764583  2.718489
  N     1.271726  4.257941  1.359877
  N     1.223478  8.345349  1.544157
  N     0.516502  4.216921  5.245581
  N     0.682944  8.779245  5.390993
  S    -0.162938  3.848644  3.723851
  S    -0.140440  8.093651  4.047484
  S     2.809526  4.718885  0.906467
  S     2.849876  8.657131  1.124482
  S     2.209161  4.715228  5.095426
  S     2.330753  9.027199  5.172310
