16  
    
  C    -6.002972  0.920041  1.320914
  C    -6.014156  4.456648  1.616777
  C    -7.266654  0.509817  0.634614
  C    -7.215456  3.887811  0.904420
  N    -4.919289  1.099440  0.531378
  N    -5.057446  4.781819  0.786830
  N    -7.125582  0.508050 -0.680535
  N    -7.139359  3.913369 -0.409862
  N    -7.755421  0.266183  3.177026
  N    -7.709800  3.890409  3.483200
  S    -8.610338  0.192771  1.770069
  S    -8.407997  3.280614  2.076779
  S    -5.535404  0.804567 -1.001092
  S    -5.625311  4.471072 -0.764454
  S    -6.176169  0.664834  3.080994
  S    -6.080233  4.207334  3.423435
