16  
    
  C    -5.669716  0.816851  1.551572
  C    -5.695594  4.663081  1.329725
  C    -6.832428  0.425841  0.858226
  C    -6.957443  4.215687  0.726338
  N    -4.596815  0.904323  0.756733
  N    -4.772864  4.910387  0.415709
  N    -6.661616  0.300018 -0.439159
  N    -6.875105  4.091350 -0.582972
  N    -7.446952  0.482115  3.339428
  N    -7.441824  4.449266  3.224394
  S    -8.211611  0.291549  1.887063
  S    -8.238801  4.022726  1.834753
  S    -5.062196  0.570506 -0.802964
  S    -5.356437  4.565692 -1.090092
  S    -5.937223  1.101341  3.279912
  S    -5.867148  4.868400  2.971594
