16  
    
  C    -4.158037  1.571262  1.885961
  C    -3.897897  5.131601  1.984063
  C    -5.455470  1.098892  1.331951
  C    -5.130885  4.575038  1.382015
  N    -3.167129  1.652575  1.001038
  N    -2.916795  5.214386  1.108868
  N    -5.359088  0.731956  0.066115
  N    -4.890606  4.104096  0.137532
  N    -5.822362  1.608505  3.825977
  N    -5.663932  5.376764  3.769788
  S    -6.646251  0.957780  2.572317
  S    -6.510226  4.683932  2.480461
  S    -3.792338  1.043431 -0.479976
  S    -3.372238  4.612205 -0.336002
  S    -4.222079  1.865102  3.647405
  S    -4.052399  5.751491  3.579075
