16  
    
  C     0.693643  3.945388  2.874006
  C     0.610446  7.614261  2.708527
  C    -0.555023  3.411072  2.269761
  C    -0.600588  6.840242  2.256766
  N     1.729280  3.893634  2.072285
  N     1.574645  7.860011  1.799222
  N    -0.475541  3.243162  0.952461
  N    -0.544538  6.549240  0.950589
  N    -0.978036  3.629401  4.843363
  N    -0.891886  7.304616  4.732436
  S    -1.826828  3.215558  3.395463
  S    -1.754610  6.653407  3.491769
  S     1.076010  3.659319  0.493242
  S     0.900506  7.104465  0.450062
  S     0.597255  4.057160  4.610357
  S     0.511275  8.075712  4.359959
