16  
    
  C    -5.722906  0.927595  1.522108
  C    -5.930579  4.758524  1.381431
  C    -6.918222  0.471558  0.878612
  C    -7.172469  4.249497  0.656642
  N    -4.609934  1.013558  0.794971
  N    -4.906036  4.894115  0.575736
  N    -6.711424  0.265380 -0.400763
  N    -7.000201  4.121259 -0.645379
  N    -7.541100  0.607439  3.356163
  N    -7.635110  4.517079  3.225246
  S    -8.263061  0.155707  1.904912
  S    -8.438899  3.983813  1.840638
  S    -5.136806  0.604555 -0.705591
  S    -5.399895  4.463876 -0.925615
  S    -5.958502  1.039713  3.265121
  S    -5.964493  4.754892  3.108909
