16  
    
  C    -3.074039  2.161811  1.767562
  C    -2.956062  5.925509  1.964789
  C    -4.174078  1.493921  1.058087
  C    -4.250131  5.462414  1.509810
  N    -2.065563  2.493771  0.978479
  N    -1.993959  6.072677  1.077516
  N    -4.009117  1.511289 -0.263992
  N    -4.185331  5.255680  0.192286
  N    -4.845366  1.622223  3.465986
  N    -4.590641  5.602388  3.973283
  S    -5.513818  1.107339  2.032290
  S    -5.513994  5.278792  2.654947
  S    -2.460804  2.176074 -0.558255
  S    -2.774756  5.770459 -0.404417
  S    -3.322955  2.311819  3.466982
  S    -2.983968  6.060874  3.679176
