16  
    
  C    -0.259354  3.301075  2.621287
  C    -0.061799  6.924984  2.456143
  C    -1.358265  2.543003  1.989172
  C    -1.293426  6.581162  1.785375
  N     0.702871  3.622003  1.772081
  N     0.909907  7.272453  1.606721
  N    -1.158444  2.373631  0.674635
  N    -1.171536  6.663706  0.463614
  N    -1.908424  2.865177  4.500194
  N    -1.868535  6.468824  4.278708
  S    -2.650644  2.253821  3.095255
  S    -2.537736  6.020301  2.829040
  S     0.381046  2.953626  0.310530
  S     0.368661  7.122824  0.073531
  S    -0.383837  3.487319  4.332694
  S    -0.313567  6.933810  4.194227
