16  
    
  C     2.618020  4.913341  3.585269
  C     2.337684  8.642912  3.431543
  C     1.403952  4.352168  2.971746
  C     1.258255  7.921471  2.819190
  N     3.513682  5.301502  2.667702
  N     3.304076  9.016466  2.601121
  N     1.554491  3.894308  1.731730
  N     1.398734  7.686311  1.512600
  N     0.886653  4.618037  5.455743
  N     0.532011  8.511500  5.300193
  S     0.019862  4.249561  4.048706
  S    -0.056375  7.582930  4.026010
  S     2.906122  4.680386  1.203688
  S     2.909435  8.301365  1.140934
  S     2.408127  5.249746  5.299138
  S     2.103310  9.151590  5.035612
