16  
    
  C     2.257325  4.706767  3.237076
  C     2.344046  8.877181  3.501460
  C     1.034404  4.256483  2.560858
  C     1.121038  8.447627  2.885681
  N     3.292612  4.925743  2.448375
  N     3.367361  8.985177  2.636548
  N     1.004267  4.439881  1.239589
  N     1.114056  8.269998  1.570894
  N     0.602213  4.240836  5.129411
  N     0.496513  8.594014  5.315078
  S    -0.168188  3.860626  3.715948
  S    -0.259278  8.247702  3.872995
  S     2.622662  4.861005  0.945824
  S     2.672784  8.599425  1.088083
  S     2.234266  4.749500  4.958337
  S     2.046819  9.069860  5.252590
