16  
    
  C     2.817763  5.191611  3.177896
  C     2.900782  9.095647  3.626730
  C     1.740087  4.422674  2.631393
  C     1.853084  8.368047  2.940335
  N     3.868894  5.312968  2.365881
  N     3.788526  9.620551  2.827175
  N     1.835976  4.200142  1.313969
  N     2.065682  8.307166  1.605100
  N     1.269740  4.948002  5.096572
  N     1.095152  8.649281  5.473390
  S     0.492794  4.164749  3.851498
  S     0.479047  8.124007  3.972457
  S     3.281713  4.856747  0.875191
  S     3.503520  9.050192  1.309879
  S     2.836339  5.475417  4.864568
  S     2.636549  9.327702  5.347307
