16  
    
  C     0.447311  3.812934  3.007767
  C     0.437169  7.539839  2.923237
  C    -0.866318  3.563213  2.364726
  C    -0.818208  7.273321  2.316579
  N     1.426506  3.801583  2.110885
  N     1.420298  7.566537  2.055159
  N    -0.878475  3.680534  1.020718
  N    -0.800511  7.129763  1.000804
  N    -1.144194  3.105304  4.885268
  N    -1.258463  7.562019  4.829658
  S    -2.090867  3.252955  3.558227
  S    -2.110115  7.126859  3.459443
  S     0.769043  3.954734  0.617479
  S     0.893281  7.260278  0.506100
  S     0.495341  3.314618  4.658183
  S     0.347059  7.844363  4.629870
