16  
    
  C    -0.877374  3.095228  2.450623
  C    -0.646569  6.564223  2.440612
  C    -2.143173  2.705621  1.826542
  C    -1.868068  6.218247  1.732541
  N     0.139393  3.145348  1.605382
  N     0.363208  6.786415  1.602341
  N    -2.058011  2.669723  0.510447
  N    -1.751036  5.924438  0.464083
  N    -2.621925  2.970258  4.401246
  N    -2.538428  6.322444  4.155839
  S    -3.414773  2.667947  2.966522
  S    -3.261449  6.016914  2.718635
  S    -0.469865  2.815886  0.105833
  S    -0.119161  6.172525  0.122649
  S    -1.001238  3.385191  4.178285
  S    -0.925075  6.642803  4.162938
