16  
    
  C    -1.178705  2.942214  2.299658
  C    -0.959833  7.057834  2.364530
  C    -2.459369  2.926411  1.696470
  C    -2.240091  6.647790  1.825869
  N    -0.191402  2.981249  1.414535
  N     0.012232  7.081651  1.480140
  N    -2.475289  2.721996  0.383602
  N    -2.225003  6.395680  0.541124
  N    -2.879726  3.167268  4.230047
  N    -2.578381  6.648843  4.460461
  S    -3.778625  2.762786  2.890218
  S    -3.446427  6.563096  3.008948
  S    -0.897437  2.855378 -0.062846
  S    -0.667949  6.823781 -0.051965
  S    -1.244192  3.280734  3.977227
  S    -0.965612  6.967475  4.166182
