16  
    
  C    -1.738840  2.399178  1.989341
  C    -1.872097  6.476528  2.148892
  C    -3.063268  2.086507  1.401661
  C    -2.891304  5.547595  1.663551
  N    -0.770905  2.541375  1.117499
  N    -0.954945  6.804987  1.242731
  N    -3.019921  1.966367  0.088300
  N    -2.662463  5.152454  0.378151
  N    -3.408253  2.092119  3.965071
  N    -3.563196  6.119834  4.107447
  S    -4.307011  1.874974  2.590865
  S    -4.202807  5.426243  2.733433
  S    -1.421848  2.153814 -0.377385
  S    -1.288372  5.882456 -0.119479
  S    -1.813185  2.604866  3.718337
  S    -2.156386  6.993008  3.856738
