16  
    
  C    -2.059418  2.444851  1.991050
  C    -2.093629  5.738696  2.222324
  C    -3.317159  1.950440  1.399205
  C    -3.387422  5.572624  1.546550
  N    -1.047789  2.497519  1.130013
  N    -1.046196  5.779189  1.353647
  N    -3.257889  1.760904  0.089762
  N    -3.319402  5.492712  0.218500
  N    -3.823378  2.361295  3.894759
  N    -3.837990  5.833924  4.072917
  S    -4.658094  1.902541  2.510067
  S    -4.723626  5.426952  2.679377
  S    -1.717875  2.084531 -0.364748
  S    -1.694897  5.752218 -0.122041
  S    -2.183606  2.531939  3.662735
  S    -2.188766  6.133153  3.872118
