16  
    
  C     2.881928  5.220964  3.319857
  C     2.940713  9.046837  3.414540
  C     1.662319  4.679874  2.698759
  C     1.794374  8.472798  2.743052
  N     3.813614  5.524420  2.421721
  N     3.830018  9.434258  2.561604
  N     1.827247  4.280782  1.434586
  N     1.777368  8.358354  1.436329
  N     1.389064  4.677141  5.233067
  N     1.164609  8.383164  5.216911
  S     0.488992  4.203442  3.845435
  S     0.592347  7.817922  3.778584
  S     3.284540  5.025301  0.969992
  S     3.334268  8.883291  1.030362
  S     2.787097  5.512314  4.975958
  S     2.624001  9.114000  5.228120
