16  
    
  C     1.441530  4.323801  3.416297
  C     1.420864  7.972636  3.104888
  C     0.129004  4.188378  2.900061
  C     0.156443  7.806342  2.390442
  N     2.367721  4.499863  2.448970
  N     2.499921  7.979031  2.308638
  N     0.056149  3.949400  1.589234
  N     0.248032  7.696102  1.068196
  N    -0.046597  4.657875  5.418511
  N    -0.461706  7.907103  4.922396
  S    -1.028603  4.167836  4.179735
  S    -1.167648  7.559345  3.486174
  S     1.602746  4.236188  1.063351
  S     1.866531  7.802591  0.758878
  S     1.526626  4.791763  5.124049
  S     1.178713  8.172010  4.873250
