16  
    
  C     2.893738  5.345662  3.542269
  C     2.952773  8.718689  3.419833
  C     1.757328  4.788273  2.855987
  C     1.842037  8.120737  2.711613
  N     3.979020  5.462118  2.770811
  N     3.888248  9.165695  2.642868
  N     1.877571  4.763646  1.535034
  N     1.958954  8.092903  1.409056
  N     1.076998  5.039103  5.260850
  N     1.038887  8.369610  5.213056
  S     0.423082  4.503763  3.821024
  S     0.458790  7.929395  3.678151
  S     3.395399  5.285100  1.219465
  S     3.471383  8.749892  1.067678
  S     2.710062  5.338967  5.259627
  S     2.643535  8.916148  5.149578
