16  
    
  C    -1.970027  2.245122  2.038290
  C    -2.046458  5.853131  2.193692
  C    -3.233310  1.993090  1.342234
  C    -3.344050  5.581683  1.537847
  N    -0.980166  2.383458  1.170193
  N    -0.999378  5.946900  1.337400
  N    -3.149822  1.762165  0.036741
  N    -3.240218  5.641669  0.223054
  N    -3.793887  2.386270  3.817786
  N    -3.740522  5.731776  4.098882
  S    -4.562877  1.805822  2.475574
  S    -4.635753  5.506188  2.721595
  S    -1.567971  2.136565 -0.346613
  S    -1.616998  5.670906 -0.219011
  S    -2.143600  2.483965  3.752544
  S    -2.123198  6.081224  3.870368
