16  
    
  C    -0.349604  3.305144  2.713294
  C    -0.335084  7.042481  2.470901
  C    -1.461423  2.635559  2.098495
  C    -1.420441  6.348829  1.968121
  N     0.700662  3.466296  1.947473
  N     0.639245  7.159196  1.596392
  N    -1.300009  2.427457  0.794151
  N    -1.348895  5.994221  0.699029
  N    -2.239905  3.043325  4.549932
  N    -2.094232  6.981025  4.348497
  S    -2.834579  2.326249  3.106622
  S    -2.735618  6.082510  3.093806
  S     0.248945  2.896671  0.442040
  S     0.167172  6.385931  0.231524
  S    -0.705262  3.670679  4.369128
  S    -0.528517  7.518527  4.182133
