16  
    
  C     0.338468  3.578902  2.923170
  C     0.382349  7.637605  2.831264
  C    -0.831266  3.165118  2.234603
  C    -0.931833  7.519411  2.308262
  N     1.378259  3.852058  2.170252
  N     1.306716  7.688992  1.887074
  N    -0.827246  3.513104  0.936127
  N    -1.030962  7.353509  1.000039
  N    -1.407058  3.123581  4.728355
  N    -1.199103  7.553367  4.829899
  S    -2.227162  2.866250  3.326352
  S    -2.154831  7.456568  3.496922
  S     0.842572  3.785194  0.588665
  S     0.593575  7.567200  0.442110
  S     0.215011  3.410326  4.607597
  S     0.457154  7.561752  4.534866
