16  
    
  C    -5.341277  0.941336  1.761604
  C    -5.132249  4.678757  1.390862
  C    -6.576438  0.576583  1.099532
  C    -6.368056  4.318486  0.706823
  N    -4.321186  1.114070  0.949035
  N    -4.097470  4.844762  0.575341
  N    -6.455941  0.448664 -0.211694
  N    -6.210099  4.096819 -0.595378
  N    -7.193080  1.033524  3.659212
  N    -7.035835  4.964712  3.138731
  S    -7.875643  0.610246  2.190120
  S    -7.789547  4.457343  1.759476
  S    -4.843366  0.837973 -0.590308
  S    -4.606434  4.464985 -0.973388
  S    -5.513740  1.341739  3.452759
  S    -5.390459  5.254895  2.985460
