16  
    
  C     1.910722  5.183647  3.093469
  C     2.182235  8.568314  3.176389
  C     0.916595  4.342001  2.464493
  C     1.046824  8.011483  2.449980
  N     2.970916  5.399857  2.274951
  N     3.212549  8.847331  2.420302
  N     1.097168  4.152827  1.159087
  N     1.310572  7.859017  1.163534
  N     0.099546  4.662051  4.767053
  N     0.509660  8.148966  5.031943
  S    -0.574244  4.142997  3.371890
  S    -0.281001  7.731525  3.629755
  S     2.564138  4.740894  0.815137
  S     2.791117  8.521932  0.847131
  S     1.621852  5.175159  4.748179
  S     2.117348  8.577915  4.855475
