16  
    
  C    -0.015718  3.239974  2.568566
  C     0.010844  7.129687  2.627136
  C    -1.087273  2.640137  1.882342
  C    -1.185621  6.614996  1.942681
  N     0.904994  3.718129  1.773171
  N     0.996439  7.460912  1.778811
  N    -0.939623  2.509079  0.556548
  N    -1.133653  6.620382  0.588708
  N    -1.839309  2.938476  4.320017
  N    -1.791918  6.495919  4.516957
  S    -2.477132  2.293345  2.884033
  S    -2.565404  6.372697  3.016778
  S     0.543592  3.174983  0.234844
  S     0.359881  7.204671  0.234657
  S    -0.325823  3.528634  4.317518
  S    -0.228243  6.988313  4.388797
