16  
    
  C    -6.066415  0.799972  1.371932
  C    -6.035063  4.452790  1.682627
  C    -7.261994  0.430486  0.707706
  C    -7.185820  3.984839  1.066471
  N    -5.096291  1.169415  0.562092
  N    -5.041968  4.779517  0.837883
  N    -7.202229  0.364833 -0.600973
  N    -7.117807  3.901857 -0.252492
  N    -7.729242  0.240485  3.226782
  N    -7.785640  3.805401  3.507786
  S    -8.560143  0.090118  1.754807
  S    -8.442895  3.284114  2.065581
  S    -5.630171  0.855314 -1.000048
  S    -5.594536  4.456542 -0.712547
  S    -6.115097  0.741585  3.047014
  S    -6.160646  4.278859  3.429195
