16  
    
  C     0.118110  3.525768  2.732809
  C     0.278495  7.354149  2.680317
  C    -0.957904  2.951032  2.046356
  C    -1.009265  7.312471  2.088907
  N     1.128811  3.959805  1.983365
  N     1.286806  7.514025  1.861579
  N    -0.794604  2.838074  0.754125
  N    -0.943321  7.364048  0.787103
  N    -1.633942  3.060622  4.573098
  N    -1.416200  7.361735  4.565479
  S    -2.330837  2.628633  3.098798
  S    -2.324052  7.249244  3.152577
  S     0.789230  3.437410  0.451319
  S     0.722549  7.569615  0.339497
  S    -0.124958  3.787642  4.448847
  S     0.240260  7.547709  4.357592
