16  
    
  C     1.862178  5.152775  3.104057
  C     2.202295  8.636442  3.254497
  C     0.817996  4.486493  2.378377
  C     1.018160  8.162314  2.632758
  N     3.041501  5.220631  2.463338
  N     3.175230  8.984841  2.397618
  N     1.122379  4.413048  1.068292
  N     1.079797  8.136600  1.320987
  N     0.029685  4.787753  4.765543
  N     0.383578  8.060700  5.058726
  S    -0.527292  4.133509  3.417141
  S    -0.312770  7.786724  3.603468
  S     2.693612  4.886448  0.883194
  S     2.595349  8.496592  0.865050
  S     1.552875  5.279630  4.841737
  S     1.971308  8.547489  5.043159
