16  
    
  C     0.509891  3.962710  2.928190
  C     0.715455  7.478384  2.834712
  C    -0.659428  3.366199  2.406561
  C    -0.473104  7.126873  2.071943
  N     1.560162  3.933193  2.102962
  N     1.857881  7.651616  2.100360
  N    -0.603021  2.976575  1.154877
  N    -0.259399  6.921612  0.755800
  N    -1.157640  3.870290  4.872798
  N    -1.304502  7.163480  4.576383
  S    -1.956554  3.320786  3.571734
  S    -1.893182  6.869382  3.067276
  S     0.926184  3.338586  0.652708
  S     1.318745  7.203179  0.546202
  S     0.480942  4.194616  4.678206
  S     0.260580  7.761405  4.561440
