16  
    
  C     2.994005  4.950589  3.227575
  C     3.036099  9.270372  3.776077
  C     1.758274  4.528626  2.653559
  C     1.886365  8.623284  3.107864
  N     3.911917  5.337116  2.316750
  N     4.012785  9.466555  2.917314
  N     1.821568  4.306022  1.338932
  N     1.982351  8.319925  1.817646
  N     1.173986  5.024318  5.091847
  N     1.106297  8.649228  5.435476
  S     0.453563  4.243620  3.775101
  S     0.479204  8.197672  3.989258
  S     3.351850  4.808590  0.858226
  S     3.439083  8.988785  1.344419
  S     2.800074  5.453089  4.868858
  S     2.587321  9.429940  5.490399
