16  
    
  C    -6.070350  0.977066  1.440398
  C    -6.172949  4.456710  1.798588
  C    -7.224782  0.255666  0.896077
  C    -7.321247  4.108432  1.039209
  N    -5.134775  1.355096  0.544899
  N    -5.038774  4.699190  1.089492
  N    -7.209809  0.092285 -0.440505
  N    -7.107404  4.010307 -0.288673
  N    -7.469128  0.169593  3.502995
  N    -8.091041  4.256374  3.477144
  S    -8.308749 -0.337278  2.179712
  S    -8.712019  3.682168  2.024388
  S    -5.766951  0.789653 -0.941089
  S    -5.483809  4.385816 -0.478781
  S    -6.103126  0.981588  3.180329
  S    -6.410185  4.444461  3.591675
