16  
    
  C    -2.785978  2.688451  2.343705
  C    -2.688698  5.906194  1.996654
  C    -3.809129  1.903959  1.732852
  C    -3.841733  5.529333  1.256423
  N    -1.807102  3.020216  1.498890
  N    -1.650432  6.164852  1.227331
  N    -3.744766  1.829703  0.374646
  N    -3.682556  5.480431 -0.081490
  N    -4.383670  2.073572  4.268398
  N    -4.519940  5.415507  3.805039
  S    -4.996787  1.358543  2.853028
  S    -5.206389  5.112914  2.312465
  S    -2.239208  2.481647  0.035022
  S    -2.125824  6.123613 -0.362141
  S    -2.844462  2.734465  4.086819
  S    -2.999330  6.115448  3.664794
