16  
    
  C    -2.566608  2.522788  2.372296
  C    -2.714621  5.831117  2.060233
  C    -3.701229  1.853484  1.719757
  C    -3.859354  5.388901  1.313251
  N    -1.672336  2.932582  1.470668
  N    -1.695781  6.132390  1.280301
  N    -3.622482  1.772393  0.405982
  N    -3.778898  5.456363  0.016596
  N    -4.387422  2.020724  4.195679
  N    -4.545415  5.520790  3.774913
  S    -5.063494  1.404709  2.783874
  S    -5.164959  4.936867  2.336548
  S    -2.239142  2.590340 -0.030603
  S    -2.206130  5.813126 -0.300594
  S    -2.828007  2.563630  4.080366
  S    -2.876103  5.866550  3.767107
