16  
    
  C     2.196460  4.440716  2.986136
  C     2.121252  8.601383  3.091317
  C     1.005081  3.994076  2.323134
  C     1.009117  7.848293  2.564136
  N     3.192288  4.598721  2.126729
  N     3.114990  8.679161  2.202037
  N     1.071759  3.873704  1.013829
  N     1.253700  7.270217  1.377564
  N     0.318971  4.297901  4.833917
  N     0.334839  8.475851  4.976234
  S    -0.383323  3.850500  3.399175
  S    -0.379283  7.869784  3.554965
  S     2.636886  4.200437  0.652839
  S     2.637307  7.863629  0.813009
  S     1.992233  4.601134  4.618957
  S     1.899338  9.055399  4.752421
