16  
    
  C     1.970762  4.879690  3.030565
  C     2.345930  8.448210  3.177134
  C     0.845143  4.314869  2.310506
  C     1.142387  7.986472  2.497333
  N     2.947584  5.242584  2.218483
  N     3.328897  8.764733  2.354531
  N     1.069576  3.920242  1.019556
  N     1.213159  7.934109  1.174137
  N     0.199190  4.374250  4.948430
  N     0.465698  8.242090  4.984501
  S    -0.560867  4.143200  3.388726
  S    -0.218642  7.739877  3.554379
  S     2.525952  4.680204  0.673832
  S     2.814741  8.362856  0.747208
  S     1.745490  5.115028  4.802702
  S     2.082864  8.760841  4.854388
