16  
    
  C    -1.794556  2.172688  2.083018
  C    -1.924438  6.153418  2.132566
  C    -3.060955  1.965023  1.374933
  C    -3.160564  5.787349  1.553418
  N    -0.784600  2.347959  1.209784
  N    -0.935766  6.072626  1.306467
  N    -2.963227  1.888234  0.036281
  N    -3.123877  5.436925  0.270569
  N    -3.774108  2.302916  3.799626
  N    -3.617793  5.661838  4.013494
  S    -4.471307  1.744642  2.382565
  S    -4.490970  5.664944  2.583855
  S    -1.374745  2.123461 -0.295245
  S    -1.541845  5.743460 -0.245632
  S    -2.108556  2.415923  3.725226
  S    -1.990321  6.086352  3.879860
