16  
    
  C     0.038075  3.657889  2.617761
  C     0.323354  7.532468  2.650943
  C    -1.013566  2.870900  2.065594
  C    -0.938529  7.272188  1.974011
  N     1.071242  3.823095  1.781506
  N     1.385157  7.663397  1.836055
  N    -0.974470  2.803594  0.717845
  N    -0.782958  7.001576  0.669704
  N    -1.782386  3.380769  4.423682
  N    -1.478173  7.174307  4.548328
  S    -2.370279  2.561230  3.087620
  S    -2.312912  7.055257  3.092519
  S     0.586825  3.180715  0.320234
  S     0.775933  7.340204  0.314181
  S    -0.286818  4.036957  4.276445
  S     0.178805  7.461206  4.421195
