16  
    
  C    -0.346148  3.289304  2.716268
  C    -0.248715  7.167850  2.473829
  C    -1.416553  2.679098  2.044704
  C    -1.375163  6.680944  1.748975
  N     0.658704  3.488900  1.865152
  N     0.874767  7.115113  1.764238
  N    -1.212616  2.202272  0.828171
  N    -1.209380  6.375486  0.465342
  N    -2.256884  3.113871  4.485463
  N    -2.240000  6.873036  4.223063
  S    -2.759836  2.292124  3.098498
  S    -2.855728  6.543355  2.723281
  S     0.313077  2.773941  0.416686
  S     0.430527  6.703785  0.162564
  S    -0.684814  3.788178  4.369075
  S    -0.659357  7.341321  4.188414
