16  
    
  C     1.143880  4.346583  3.003898
  C     1.698301  8.532043  2.967147
  C    -0.051370  3.957724  2.224107
  C     0.462733  8.138034  2.342389
  N     2.149823  4.774856  2.244395
  N     2.735094  8.458812  2.154596
  N     0.177556  3.841894  0.896746
  N     0.534690  7.905671  1.036448
  N    -0.764459  3.978301  4.760535
  N    -0.050128  8.372890  4.818703
  S    -1.387816  3.624432  3.282766
  S    -0.855454  8.038489  3.432425
  S     1.720628  4.343299  0.710655
  S     2.079382  8.136449  0.607480
  S     0.877898  4.374072  4.710855
  S     1.535606  8.824782  4.671102
