16  
    
  C     2.387006  4.846275  3.311604
  C     2.413598  8.644630  3.479781
  C     1.179147  4.335940  2.665429
  C     1.108812  8.339723  2.851914
  N     3.398914  5.170269  2.500393
  N     3.461720  8.730014  2.720596
  N     1.266204  4.256275  1.343228
  N     1.232289  8.305716  1.533723
  N     0.507425  4.210104  5.233078
  N     0.741550  8.773789  5.379781
  S    -0.162317  3.870595  3.725778
  S    -0.127491  8.080820  4.084839
  S     2.846769  4.700794  0.943610
  S     2.860368  8.662502  1.144155
  S     2.216287  4.718163  5.119931
  S     2.371257  9.009791  5.174599
