16  
    
  C     3.603177  5.385593  3.569601
  C     3.459987  9.162318  3.595416
  C     2.372034  4.914968  2.909225
  C     2.298699  8.625953  2.885975
  N     4.647596  5.628928  2.779782
  N     4.471592  9.401386  2.761755
  N     2.488495  5.040780  1.573238
  N     2.493010  8.370646  1.627388
  N     1.762932  5.241335  5.458337
  N     1.605633  8.593181  5.334906
  S     1.056517  4.910443  4.066291
  S     0.973702  8.152351  3.843956
  S     4.068598  5.371485  1.188569
  S     3.902398  8.975542  1.241801
  S     3.387868  5.431000  5.323485
  S     3.154429  9.206446  5.367970
