16  
    
  C    -3.314706  1.901069  2.016622
  C    -3.096361  5.514682  2.095065
  C    -4.584696  1.529686  1.406936
  C    -4.205782  4.851138  1.470644
  N    -2.369702  2.209906  1.123450
  N    -2.083022  5.749616  1.271691
  N    -4.448583  1.316794  0.117285
  N    -4.039216  4.570297  0.206702
  N    -4.975757  1.513789  3.968698
  N    -4.956894  5.199411  3.962823
  S    -5.798307  1.086953  2.557410
  S    -5.543667  4.488854  2.589276
  S    -2.921551  1.801371 -0.350062
  S    -2.546404  5.249947 -0.231030
  S    -3.298615  1.868510  3.769989
  S    -3.418425  5.793524  3.724408
