16  
    
  C    -2.989223  2.068977  1.790648
  C    -2.951225  5.891270  1.994926
  C    -4.129588  1.604675  1.057463
  C    -4.196117  5.400911  1.429085
  N    -1.975345  2.579481  1.061578
  N    -2.008493  6.115195  1.085526
  N    -3.889614  1.463805 -0.262652
  N    -4.191778  5.268391  0.047392
  N    -4.819447  1.649357  3.523583
  N    -4.548608  5.730889  4.027075
  S    -5.480911  1.258755  2.068305
  S    -5.466108  5.243280  2.686268
  S    -2.505730  2.263349 -0.506648
  S    -2.622934  5.737408 -0.411430
  S    -3.300399  2.328892  3.459516
  S    -2.975217  6.096457  3.732787
