16  
    
  C    -0.105478  3.744481  2.430094
  C     0.335906  7.451709  2.713446
  C    -1.184524  2.946148  1.973767
  C    -0.890645  7.056345  2.008949
  N     0.989982  3.803472  1.668348
  N     1.388554  7.659016  1.916631
  N    -0.985025  2.607287  0.675252
  N    -0.718762  6.803743  0.699207
  N    -1.776393  3.475305  4.397683
  N    -1.470169  7.257963  4.608266
  S    -2.536200  2.807338  3.081585
  S    -2.204108  6.843218  3.184636
  S     0.500961  3.198666  0.218123
  S     0.835361  7.229033  0.380321
  S    -0.202054  4.055360  4.134926
  S     0.178492  7.646081  4.468176
