16  
    
  C     2.994940  5.417578  3.942362
  C     2.392998  8.590838  3.229192
  C     1.740474  5.029550  3.356158
  C     1.204958  8.071476  2.574960
  N     3.984610  5.481342  3.034420
  N     3.400513  8.780564  2.442866
  N     1.878172  4.489382  2.143945
  N     1.412361  7.737277  1.298415
  N     1.137352  5.671534  5.721431
  N     0.721360  8.252750  5.151953
  S     0.400767  4.848513  4.470174
  S    -0.181938  8.057394  3.717000
  S     3.425209  4.784442  1.595515
  S     3.046412  8.171456  0.965305
  S     2.753678  5.853615  5.650787
  S     2.357075  8.801688  4.869211
