16  
    
  C     3.148295  5.213922  3.404833
  C     3.332282  9.194060  3.769719
  C     1.948885  4.675900  2.733982
  C     2.191952  8.854326  2.975131
  N     4.274257  5.178306  2.694881
  N     4.388643  9.422956  3.011428
  N     2.168749  4.473832  1.422570
  N     2.427535  8.696396  1.634313
  N     1.355580  4.921000  5.228794
  N     1.436897  8.745797  5.333910
  S     0.632478  4.474801  3.825777
  S     0.753497  8.718203  3.905886
  S     3.750514  4.820960  1.117914
  S     4.002141  8.934691  1.485181
  S     2.987631  5.263330  5.090636
  S     2.965469  9.282110  5.487006
