16  
    
  C    -0.369192  3.395410  2.593785
  C    -0.341055  6.903241  2.359424
  C    -1.624674  3.020438  2.009139
  C    -1.564957  6.547333  1.819079
  N     0.605138  3.451745  1.705255
  N     0.564284  7.186939  1.420046
  N    -1.652884  3.053840  0.699187
  N    -1.669736  6.389596  0.522909
  N    -1.962718  3.206740  4.523878
  N    -1.962410  6.690244  4.338496
  S    -2.943270  2.937605  3.224250
  S    -2.812208  6.248798  2.946429
  S    -0.050875  3.193982  0.215308
  S    -0.109359  6.745764 -0.028903
  S    -0.407087  3.552689  4.293982
  S    -0.374266  7.130280  4.119988
