16  
    
  C     0.434494  3.777574  2.966249
  C     0.446173  7.513825  2.917072
  C    -0.877035  3.617349  2.346870
  C    -0.830893  7.267252  2.240646
  N     1.446627  3.863293  2.099508
  N     1.494111  7.598068  2.087581
  N    -0.833041  3.676261  1.017247
  N    -0.691329  7.090390  0.915601
  N    -1.083537  3.175437  4.919845
  N    -1.291065  7.516548  4.857931
  S    -2.073376  3.283104  3.555434
  S    -2.119699  7.100002  3.440278
  S     0.722532  3.933948  0.626027
  S     0.930765  7.210539  0.531016
  S     0.495258  3.316800  4.669781
  S     0.315533  7.847833  4.605394
