16  
    
  C    -2.729466  2.630595  2.388167
  C    -2.633153  5.843781  1.985470
  C    -3.803545  1.896803  1.696940
  C    -3.862369  5.471957  1.310588
  N    -1.792505  3.028888  1.549144
  N    -1.600864  6.167377  1.185034
  N    -3.715500  1.807331  0.391588
  N    -3.736313  5.498556 -0.008996
  N    -4.374369  2.041878  4.222929
  N    -4.503143  5.453133  3.791173
  S    -4.980851  1.374113  2.826521
  S    -5.238445  5.037406  2.308884
  S    -2.260135  2.510037  0.017497
  S    -2.141076  6.033329 -0.337604
  S    -2.840694  2.697972  4.092720
  S    -2.979123  6.042893  3.695312
