16  
    
  C     0.518288  3.655065  2.954209
  C     0.581368  7.503353  2.920163
  C    -0.826067  3.594744  2.362305
  C    -0.634120  7.089681  2.142877
  N     1.460618  3.750568  2.023496
  N     1.656068  7.656289  2.133082
  N    -0.843274  3.576925  1.032608
  N    -0.408578  6.814124  0.848393
  N    -1.121713  3.487136  4.941070
  N    -1.420450  7.271150  4.634848
  S    -2.037355  3.315962  3.587778
  S    -2.096094  7.055023  3.116955
  S     0.694080  3.860170  0.545198
  S     1.113905  7.197731  0.610577
  S     0.532574  3.590754  4.705681
  S     0.236843  7.798672  4.638127
