16  
    
  C    -0.322534  3.297987  2.775815
  C    -0.304876  7.075416  2.507697
  C    -1.479762  2.731402  2.088724
  C    -1.462875  6.319759  1.964608
  N     0.701829  3.481274  1.915385
  N     0.658370  7.163797  1.583005
  N    -1.240590  2.335116  0.839968
  N    -1.338306  6.018907  0.663604
  N    -2.261347  3.050327  4.500974
  N    -2.136583  7.000080  4.368389
  S    -2.819058  2.311992  3.099674
  S    -2.760897  6.128687  3.098054
  S     0.263107  2.896750  0.447471
  S     0.224851  6.399342  0.211282
  S    -0.731781  3.676743  4.371878
  S    -0.554522  7.502992  4.188507
