16  
    
  C    -2.471453  2.408349  2.189896
  C    -2.658994  5.570834  2.110892
  C    -3.700556  2.047639  1.540913
  C    -3.859288  5.161357  1.424954
  N    -1.423800  2.483868  1.392043
  N    -1.661265  5.977676  1.291449
  N    -3.577070  1.856258  0.250241
  N    -3.804331  5.104501  0.094208
  N    -4.204368  1.864502  4.068714
  N    -4.376542  5.238162  3.913795
  S    -5.087409  1.759763  2.669391
  S    -5.148557  4.984472  2.492309
  S    -2.011159  2.132532 -0.184486
  S    -2.294618  5.653102 -0.230735
  S    -2.621699  2.361282  3.904217
  S    -2.768057  5.737811  3.847534
