16  
    
  C     1.933593  5.116901  3.045976
  C     2.213408  8.496183  3.126832
  C     0.891612  4.356088  2.458064
  C     1.084430  7.967467  2.459076
  N     2.949136  5.349893  2.258147
  N     3.248212  8.837857  2.364639
  N     1.102171  4.060650  1.194640
  N     1.291938  7.886865  1.119395
  N     0.113850  4.558652  4.783332
  N     0.545403  8.182023  5.012446
  S    -0.546674  4.168200  3.382986
  S    -0.275352  7.733670  3.638496
  S     2.545247  4.736033  0.766490
  S     2.822700  8.494116  0.857025
  S     1.632437  5.148975  4.743405
  S     2.097116  8.625917  4.844166
