16  
    
  C     0.449469  3.813613  2.985580
  C     0.441930  7.516520  2.939280
  C    -0.887880  3.590073  2.346855
  C    -0.830910  7.275673  2.269160
  N     1.435584  3.833438  2.102872
  N     1.461972  7.591469  2.078104
  N    -0.844856  3.677041  1.007667
  N    -0.724205  7.104426  0.940521
  N    -1.093549  3.154222  4.909970
  N    -1.275683  7.532951  4.855469
  S    -2.076544  3.275205  3.556811
  S    -2.117302  7.106817  3.446541
  S     0.735671  3.943042  0.626483
  S     0.925801  7.222073  0.514233
  S     0.493360  3.312740  4.667421
  S     0.323109  7.847204  4.609985
