16  
    
  C     0.532277  3.598500  2.744499
  C     0.750618  7.636731  2.645583
  C    -0.635773  3.075397  2.082936
  C    -0.432045  7.197620  2.066473
  N     1.634373  3.811949  1.959314
  N     1.661846  8.032563  1.799914
  N    -0.512752  3.291842  0.774008
  N    -0.386796  7.185005  0.761932
  N    -1.238238  3.288773  4.616692
  N    -0.808796  6.832656  4.482043
  S    -2.019287  2.804636  3.159125
  S    -1.673538  6.575801  3.083435
  S     1.044733  3.573765  0.447927
  S     1.064864  7.775638  0.265049
  S     0.325685  3.632559  4.461082
  S     0.641963  7.639778  4.409987
