16  
    
  C    -0.346267  3.264309  2.733886
  C    -0.283009  7.030832  2.578560
  C    -1.458662  2.555209  2.065426
  C    -1.448582  6.414927  1.851602
  N     0.619050  3.687734  1.898946
  N     0.796964  7.176966  1.811344
  N    -1.075615  2.132497  0.852384
  N    -1.243554  6.164793  0.559063
  N    -2.243435  3.050453  4.452636
  N    -2.186393  6.950106  4.232400
  S    -2.822192  2.306856  3.117063
  S    -2.874002  6.419381  2.777820
  S     0.410845  2.813374  0.521873
  S     0.348646  6.628075  0.283152
  S    -0.721001  3.726206  4.316655
  S    -0.568927  7.468164  4.178138
