16  
    
  C    -1.676137  2.678115  2.364542
  C    -1.671072  6.181121  2.407467
  C    -2.795054  2.108464  1.671514
  C    -2.865901  5.795244  1.730625
  N    -0.582169  2.721849  1.634995
  N    -0.609578  6.333802  1.619619
  N    -2.602439  1.835050  0.379243
  N    -2.745907  5.557406  0.414414
  N    -3.540383  2.422129  4.170622
  N    -3.485170  5.888761  4.284554
  S    -4.265617  2.142263  2.681153
  S    -4.185452  5.398537  2.850109
  S    -1.030089  2.286991  0.102881
  S    -1.145720  6.007513  0.050828
  S    -1.920581  2.841698  4.124464
  S    -1.895854  6.421028  4.109633
