16  
    
  C    -3.711225  1.975187  1.812586
  C    -3.616525  5.533879  1.809197
  C    -4.626785  1.004837  1.258137
  C    -4.888948  5.192493  1.147385
  N    -2.689814  2.314302  1.043407
  N    -2.609904  5.712480  0.987353
  N    -4.413083  0.698709 -0.028815
  N    -4.784778  5.100277 -0.189134
  N    -5.402971  1.445000  3.694997
  N    -5.348606  5.405256  3.694237
  S    -5.974303  0.573339  2.402435
  S    -6.126587  4.964467  2.355643
  S    -2.975102  1.476597 -0.461294
  S    -3.202423  5.473050 -0.552757
  S    -3.970766  2.272037  3.572772
  S    -3.696995  5.747822  3.577583
