16  
    
  C    -1.177630  3.251821  2.198099
  C    -1.074438  6.810605  2.540090
  C    -2.444589  2.810420  1.670329
  C    -2.372754  6.674846  1.910152
  N    -0.219525  3.369568  1.284950
  N    -0.054679  6.950088  1.682969
  N    -2.493606  2.562361  0.349379
  N    -2.291074  6.666323  0.559344
  N    -2.737417  2.951303  4.266525
  N    -2.809136  6.858931  4.490490
  S    -3.695254  2.643371  2.906107
  S    -3.631650  6.543474  3.101510
  S    -0.975500  3.053500 -0.189475
  S    -0.725605  7.006248  0.195795
  S    -1.134019  3.313000  3.882773
  S    -1.181871  7.123328  4.253031
