16  
    
  C    -3.175976  1.930604  1.745478
  C    -3.138172  5.775417  2.056297
  C    -4.196403  1.242450  1.041546
  C    -4.386030  5.396676  1.480382
  N    -2.079239  2.254307  1.025480
  N    -2.231579  6.072269  1.138134
  N    -3.971704  1.155691 -0.268108
  N    -4.439336  5.400771  0.142739
  N    -5.104698  1.587401  3.494633
  N    -4.702738  5.385861  4.010964
  S    -5.684491  1.151613  2.045725
  S    -5.627308  5.184546  2.601731
  S    -2.452839  1.835242 -0.534930
  S    -2.864322  5.767857 -0.335288
  S    -3.578786  2.165848  3.428852
  S    -3.124473  5.872302  3.843546
