16  
    
  C     2.023002  4.326262  3.385348
  C     1.692983  7.746962  3.035058
  C     0.823116  4.007745  2.712163
  C     0.432876  7.525088  2.371943
  N     2.995996  4.638939  2.540792
  N     2.759320  7.938630  2.224065
  N     0.789409  4.141171  1.409780
  N     0.463174  7.579234  1.022529
  N     0.255770  3.998347  5.227436
  N    -0.067976  7.455753  4.910733
  S    -0.602353  3.684772  3.798261
  S    -0.931003  7.255611  3.505876
  S     2.342785  4.528414  1.006433
  S     2.127747  7.810300  0.692556
  S     1.825954  4.330297  5.099468
  S     1.572498  7.633610  4.758083
