16  
    
  C    -1.686476  2.431896  2.443826
  C    -1.754745  6.161810  2.442293
  C    -2.896035  2.138377  1.729939
  C    -2.886882  5.628695  1.749993
  N    -0.678107  2.758742  1.622698
  N    -0.754297  6.427553  1.634486
  N    -2.797133  1.957476  0.405379
  N    -2.714036  5.482613  0.446177
  N    -3.551785  2.329688  4.200096
  N    -3.549517  5.711075  4.189538
  S    -4.355540  2.195887  2.750618
  S    -4.282978  5.384253  2.720798
  S    -1.183473  2.359455  0.088756
  S    -1.140746  5.881519  0.109631
  S    -1.943889  2.723144  4.097906
  S    -1.917101  6.205939  4.163297
