16  
    
  C    -0.562294  3.186404  2.860330
  C    -1.239422  6.706796  2.706655
  C    -1.782653  2.872246  2.251211
  C    -2.297130  6.138495  1.881016
  N     0.511207  3.216236  2.033784
  N    -0.144973  6.994692  1.985901
  N    -1.674087  2.538414  0.962130
  N    -2.057336  6.154641  0.564696
  N    -2.402179  3.226119  4.726124
  N    -3.198349  6.130791  4.284716
  S    -3.127565  2.737439  3.282874
  S    -3.752904  5.789683  2.784337
  S    -0.089140  2.784779  0.562791
  S    -0.409682  6.552252  0.408281
  S    -0.769908  3.682832  4.552835
  S    -1.664053  6.708643  4.385779
