16  
    
  C     2.955721  5.340742  3.334868
  C     3.328900  9.106911  3.355772
  C     1.907699  4.585404  2.725251
  C     2.041698  8.659531  2.846933
  N     4.063249  5.465235  2.547170
  N     4.348154  9.170065  2.520558
  N     2.098981  4.356402  1.440701
  N     2.127946  8.427042  1.575025
  N     1.300442  4.692612  5.239328
  N     1.912858  8.959478  5.398693
  S     0.534757  4.288726  3.824980
  S     0.872168  8.601142  4.179038
  S     3.671413  4.909301  1.075918
  S     3.761287  8.620638  1.102389
  S     2.732037  5.523037  5.092836
  S     3.493333  9.232105  5.053671
