16  
    
  C    -1.918586  2.497116  2.621657
  C    -1.694264  5.970127  2.319822
  C    -3.111594  2.044483  1.916961
  C    -2.985976  5.606195  1.728325
  N    -0.849601  2.703069  1.831619
  N    -0.686996  6.103826  1.450737
  N    -2.895757  1.805193  0.619726
  N    -2.900283  5.507328  0.413295
  N    -3.753185  2.096948  4.415115
  N    -3.472597  5.686876  4.232144
  S    -4.423529  1.701720  2.948535
  S    -4.310514  5.468659  2.831529
  S    -1.300751  2.279597  0.313642
  S    -1.377649  6.016247 -0.112536
  S    -2.134864  2.447803  4.349582
  S    -1.874047  5.836518  4.028306
