16  
    
  C     2.474882  4.906324  3.494224
  C     2.503576  8.673205  3.436123
  C     1.270727  4.477513  2.787808
  C     1.280472  8.062480  2.920140
  N     3.531829  5.199004  2.733770
  N     3.459032  8.790448  2.491817
  N     1.507593  4.235313  1.481697
  N     1.297518  7.765057  1.596587
  N     0.744469  4.477173  5.442477
  N     0.685484  8.532289  5.376060
  S    -0.033055  4.073107  3.965870
  S     0.054154  7.716342  4.041090
  S     3.109369  4.650026  1.217140
  S     2.749896  8.315470  1.053345
  S     2.283113  5.138710  5.221430
  S     2.311999  9.118122  5.159587
