16  
    
  C    -4.456659  1.640108  1.952702
  C    -4.658028  5.032501  1.696613
  C    -5.621076  0.973609  1.349161
  C    -5.825119  4.430570  1.043456
  N    -3.456565  1.746454  1.101765
  N    -3.607447  5.296150  0.944329
  N    -5.519384  0.835705  0.009003
  N    -5.666218  4.329729 -0.257361
  N    -5.975317  1.065182  3.920697
  N    -6.401771  4.715845  3.528317
  S    -6.804079  0.625085  2.514061
  S    -7.083459  3.992796  2.137319
  S    -4.017882  1.267302 -0.365569
  S    -4.131312  4.910363 -0.580889
  S    -4.382171  1.763319  3.691923
  S    -4.802376  5.186518  3.364490
