16  
    
  C    -0.305850  3.173505  2.630424
  C    -0.237518  7.101067  2.423170
  C    -1.511274  2.659228  2.045163
  C    -1.341332  6.256247  1.846461
  N     0.624098  3.458236  1.740574
  N     0.728938  7.273461  1.562143
  N    -1.515718  2.461453  0.720001
  N    -1.184180  5.915092  0.585184
  N    -1.940069  2.901705  4.625839
  N    -1.983734  6.743571  4.235447
  S    -2.795319  2.506435  3.230212
  S    -2.601281  5.897781  2.917945
  S     0.028233  2.919243  0.245436
  S     0.184112  6.639839  0.093591
  S    -0.299634  3.303367  4.393773
  S    -0.429330  7.355437  4.078109
