16  
    
  C    -4.188576  1.434600  1.884925
  C    -4.081535  4.979199  2.033899
  C    -5.423153  1.189113  1.199199
  C    -5.409521  4.698800  1.425487
  N    -3.118022  1.442423  1.112409
  N    -3.078485  5.051819  1.160463
  N    -5.313156  1.069389 -0.099149
  N    -5.317538  4.436060  0.130719
  N    -5.994081  1.495796  3.608208
  N    -5.788900  5.342972  3.883545
  S    -6.860328  1.200652  2.187976
  S    -6.705689  4.997266  2.521571
  S    -3.661394  1.188170 -0.382549
  S    -3.740199  4.642886 -0.303822
  S    -4.367405  1.505495  3.576045
  S    -4.137899  5.532290  3.600864
