16  
    
  C     3.012558  5.346418  3.839574
  C     2.615216  8.470827  3.128681
  C     1.716156  5.066046  3.301102
  C     1.299019  8.182524  2.594200
  N     3.987705  5.122940  2.957725
  N     3.616253  8.510487  2.260118
  N     1.706259  4.626422  2.041990
  N     1.316808  8.105564  1.277945
  N     1.251204  5.652052  5.805018
  N     1.033750  8.852022  5.007940
  S     0.387207  5.338343  4.415481
  S     0.107922  8.222154  3.844470
  S     3.289487  4.762920  1.504930
  S     2.959044  8.206531  0.805512
  S     2.896024  5.836872  5.581283
  S     2.650188  9.044465  4.789447
