16  
    
  C     0.153949  3.538126  2.300894
  C     0.203918  7.243807  2.915107
  C    -1.100471  3.064665  1.632258
  C    -1.009489  6.741078  2.228925
  N     1.188187  3.702117  1.520571
  N     1.241838  7.540965  2.117638
  N    -0.961766  2.989379  0.320210
  N    -0.844989  6.587597  0.917442
  N    -1.469667  2.898376  4.267678
  N    -1.698351  7.223741  4.647693
  S    -2.384154  2.863195  2.812630
  S    -2.340560  6.522260  3.262121
  S     0.572903  3.499612 -0.052102
  S     0.710367  6.996066  0.574107
  S     0.125779  3.400876  4.044932
  S    -0.125266  7.731111  4.547707
