16  
    
  C    -5.306172  0.984889  1.753189
  C    -5.170232  4.776376  1.323621
  C    -6.498851  0.471480  1.153854
  C    -6.385210  4.333834  0.646095
  N    -4.215647  1.170699  0.981199
  N    -4.055819  4.879741  0.587875
  N    -6.449709  0.398671 -0.204620
  N    -6.187782  4.110157 -0.670672
  N    -7.159636  1.047728  3.649703
  N    -7.012035  4.875334  3.142050
  S    -7.876945  0.583297  2.223749
  S    -7.773343  4.409258  1.753127
  S    -4.812146  0.830828 -0.580372
  S    -4.580092  4.466014 -0.936402
  S    -5.509257  1.334438  3.455095
  S    -5.391330  5.276132  2.997330
