16  
    
  C    -2.543919  2.033372  2.049101
  C    -2.545302  5.762485  2.116129
  C    -3.844432  1.835247  1.389737
  C    -3.697238  5.351648  1.424696
  N    -1.546636  2.163265  1.188405
  N    -1.455313  5.865678  1.330499
  N    -3.768284  1.663246  0.070612
  N    -3.518362  5.147041  0.113009
  N    -4.397833  2.087280  3.855026
  N    -4.503179  5.917942  3.775338
  S    -5.227418  1.987830  2.409970
  S    -5.060148  5.288827  2.387926
  S    -2.176741  2.022555 -0.327415
  S    -1.869185  5.329473 -0.182531
  S    -2.765487  2.413073  3.697019
  S    -2.847898  6.094570  3.862024
