16  
    
  C    -4.269071  1.741354  1.894954
  C    -4.315918  5.209974  1.751721
  C    -5.399216  1.131963  1.287113
  C    -5.572849  4.697201  1.195971
  N    -3.185128  1.695850  1.153944
  N    -3.358163  5.247949  0.856741
  N    -5.289496  0.688604  0.062325
  N    -5.536929  4.544039 -0.123273
  N    -6.056928  1.463136  3.761910
  N    -5.987704  5.087978  3.663200
  S    -6.818561  0.989227  2.293508
  S    -6.887930  4.657002  2.287533
  S    -3.615204  0.967767 -0.261041
  S    -3.993999  4.794049 -0.591136
  S    -4.517378  2.163553  3.520435
  S    -4.408917  5.649145  3.434324
