16  
    
  C     1.018192  4.183105  2.561493
  C     1.098330  7.687472  3.160291
  C    -0.115940  3.394273  2.178690
  C    -0.143596  7.387108  2.588783
  N     2.084006  4.170673  1.773065
  N     2.092165  7.821411  2.268071
  N     0.092116  2.886024  0.974742
  N    -0.102374  7.181414  1.281379
  N    -0.743240  4.336090  4.488656
  N    -0.603408  7.587609  5.022210
  S    -1.491007  3.384764  3.300444
  S    -1.497915  7.260586  3.675269
  S     1.530172  3.412589  0.397790
  S     1.486855  7.405103  0.796495
  S     0.805067  4.752759  4.186700
  S     0.999475  8.041442  4.871629
