16  
    
  C     0.692591  3.543350  2.720929
  C     0.642715  7.684179  2.733726
  C    -0.686811  3.439970  2.163387
  C    -0.511736  7.004823  2.171814
  N     1.627495  3.907754  1.830201
  N     1.538735  8.004762  1.805114
  N    -0.635181  3.307395  0.827747
  N    -0.479769  6.839031  0.868302
  N    -0.921495  3.286507  4.728421
  N    -1.057548  7.341219  4.647111
  S    -1.963835  3.122490  3.368457
  S    -1.776890  6.626686  3.278284
  S     0.896312  3.701075  0.342714
  S     0.915147  7.414961  0.344576
  S     0.635209  3.503902  4.416100
  S     0.528349  7.891296  4.416450
