16  
    
  C     0.639142  3.908352  3.193177
  C     1.180855  7.539503  2.844354
  C    -0.482371  3.305007  2.497620
  C     0.025484  7.055021  2.141602
  N     1.792888  4.041300  2.490793
  N     2.248603  7.681089  2.064110
  N    -0.337878  3.299107  1.162825
  N     0.213680  6.852684  0.830831
  N    -1.102434  3.190782  4.952436
  N    -0.768634  7.310639  4.568383
  S    -1.888462  2.920589  3.473329
  S    -1.390393  6.762961  3.146700
  S     1.236432  3.823030  0.877677
  S     1.794794  7.178661  0.475724
  S     0.503888  3.627889  4.876895
  S     0.796414  7.915258  4.515377
