16  
    
  C    -1.102688  3.123805  2.434873
  C    -0.745518  6.866551  2.250641
  C    -2.361926  2.771318  1.774938
  C    -2.022612  6.544521  1.667739
  N    -0.066055  3.065976  1.584122
  N     0.277341  6.834108  1.378836
  N    -2.314537  2.480264  0.472044
  N    -1.975246  6.282811  0.353616
  N    -2.943873  3.163778  4.191755
  N    -2.347264  6.558183  4.289700
  S    -3.768399  3.043649  2.787591
  S    -3.229423  6.401532  2.910181
  S    -0.698277  2.668459  0.074086
  S    -0.455711  6.622477 -0.109252
  S    -1.310069  3.270070  4.116031
  S    -0.737615  6.912480  4.051899
