16  
    
  C    -3.380998  1.631157  2.089354
  C    -3.110949  5.429178  2.083045
  C    -4.656015  1.245564  1.462877
  C    -4.347002  4.968742  1.439772
  N    -2.394419  1.568728  1.210890
  N    -2.066759  5.600561  1.263613
  N    -4.622603  1.086159  0.135782
  N    -4.222346  4.838840  0.119486
  N    -5.072369  1.649359  3.961507
  N    -4.900969  5.138150  3.887396
  S    -5.967251  1.147067  2.665533
  S    -5.690242  4.923791  2.464774
  S    -3.000155  1.326776 -0.322603
  S    -2.700328  5.113717 -0.253324
  S    -3.426008  1.735846  3.867759
  S    -3.362336  5.716119  3.775921
