16  
    
  C     1.438239  4.506824  3.356762
  C     1.394057  7.970626  3.124009
  C     0.082656  4.111516  2.900678
  C     0.140366  7.842496  2.437919
  N     2.396350  4.520022  2.448522
  N     2.455456  7.982596  2.337533
  N     0.047750  3.924527  1.568242
  N     0.307892  7.741522  1.120601
  N    -0.097813  4.623541  5.452948
  N    -0.445196  7.946801  4.943468
  S    -1.090136  4.153574  4.185119
  S    -1.176412  7.653760  3.472225
  S     1.535208  4.277361  1.045654
  S     1.890067  7.738736  0.743023
  S     1.566957  4.747461  5.098140
  S     1.203095  8.152766  4.853899
