16  
    
  C    -3.345852  1.981127  2.023432
  C    -3.121174  5.498392  2.051084
  C    -4.548168  1.432860  1.456948
  C    -4.231533  4.835644  1.402068
  N    -2.361795  2.199689  1.163212
  N    -2.059030  5.704209  1.296016
  N    -4.600367  1.382868  0.147653
  N    -4.031781  4.591300  0.123603
  N    -4.878256  1.405727  3.947026
  N    -4.936689  5.266510  3.873269
  S    -5.759954  1.059794  2.635806
  S    -5.538083  4.484779  2.501495
  S    -3.070371  1.752551 -0.296736
  S    -2.536010  5.167500 -0.246597
  S    -3.328390  1.863061  3.689051
  S    -3.386122  5.814522  3.851987
