16  
    
  C    -3.016838  2.088253  1.796012
  C    -2.971766  5.923677  1.971132
  C    -4.126808  1.586179  1.036080
  C    -4.214126  5.414684  1.429230
  N    -2.045053  2.532605  1.041017
  N    -1.971673  6.089739  1.090063
  N    -3.953015  1.464907 -0.262005
  N    -4.173764  5.261446  0.140737
  N    -4.805309  1.638277  3.470551
  N    -4.588493  5.665454  3.983532
  S    -5.502276  1.185553  2.051535
  S    -5.499288  5.260633  2.691556
  S    -2.492370  2.229047 -0.523223
  S    -2.703150  5.760020 -0.416588
  S    -3.310007  2.324812  3.454624
  S    -2.972969  6.079124  3.704832
