16  
    
  C    -2.609324  2.690119  2.005931
  C    -2.454772  6.146068  2.136229
  C    -3.790242  2.088355  1.519056
  C    -3.600342  5.649237  1.400137
  N    -1.567025  2.726496  1.172528
  N    -1.323208  6.285844  1.401090
  N    -3.744910  1.887954  0.196778
  N    -3.341849  5.351533  0.090469
  N    -4.319393  2.490130  4.001783
  N    -4.410355  6.062503  3.820361
  S    -5.090735  1.900675  2.624654
  S    -4.913060  5.365807  2.385860
  S    -2.174646  2.130798 -0.255679
  S    -1.868822  6.004822 -0.187684
  S    -2.676009  2.876873  3.780390
  S    -2.869834  6.647707  3.758225
