16  
    
  C     2.950288  5.245360  3.649988
  C     2.903134  8.686023  3.498788
  C     1.732879  5.085029  2.955048
  C     1.725571  8.337811  2.696250
  N     4.025096  5.304277  2.872848
  N     4.050232  8.773277  2.865840
  N     1.835034  4.828660  1.659635
  N     2.058511  8.288995  1.428414
  N     1.097391  4.827888  5.387723
  N     1.047431  8.745447  5.140197
  S     0.343804  4.943690  3.905290
  S     0.343995  8.147690  3.823643
  S     3.396217  5.025783  1.316985
  S     3.673052  8.471350  1.253649
  S     2.758324  5.267900  5.363331
  S     2.680861  8.903316  5.186066
