16  
    
  C    -2.497739  2.509731  1.976528
  C    -2.435792  6.212088  2.152160
  C    -3.769759  2.195401  1.448109
  C    -3.546794  5.576585  1.480424
  N    -1.468541  2.590955  1.117218
  N    -1.372967  6.412399  1.310914
  N    -3.707508  1.844999  0.161333
  N    -3.346709  5.377448  0.162950
  N    -4.175694  2.468964  3.941444
  N    -4.280657  5.889544  3.873654
  S    -5.027064  1.956109  2.622747
  S    -4.981078  5.374291  2.453047
  S    -2.155285  2.171252 -0.337251
  S    -1.700936  5.757609 -0.171062
  S    -2.630201  2.924606  3.704843
  S    -2.734251  6.516696  3.830721
