16  
    
  C     3.121202  5.065811  3.408382
  C     3.212772  8.946861  3.782660
  C     1.855292  4.938034  2.767929
  C     1.886382  8.685154  3.314475
  N     4.176948  5.135855  2.600942
  N     4.070400  8.719903  2.763395
  N     1.968381  4.593037  1.476761
  N     1.737436  8.294720  2.019307
  N     1.297331  5.018061  5.255577
  N     1.572683  9.402815  5.765564
  S     0.548239  4.532649  3.855655
  S     0.637778  8.816493  4.484545
  S     3.543605  4.731109  1.060013
  S     3.202276  8.203073  1.424897
  S     2.965091  5.217199  5.126131
  S     3.213423  9.430323  5.499873
