16  
    
  C    -1.569218  2.650348  2.401288
  C    -1.649945  6.171164  2.352728
  C    -2.744185  2.280214  1.685285
  C    -2.824241  5.687060  1.691084
  N    -0.508732  2.790150  1.639729
  N    -0.619194  6.397252  1.555279
  N    -2.542695  1.894170  0.444625
  N    -2.722560  5.748716  0.369032
  N    -3.528139  2.483203  4.104844
  N    -3.410740  6.106912  4.248675
  S    -4.210975  2.012911  2.658187
  S    -4.143390  5.460702  2.877043
  S    -0.933843  2.218055  0.102145
  S    -1.111757  6.042018  0.013089
  S    -1.915363  2.899391  4.072700
  S    -1.816987  6.519683  4.138788
