16  
    
  C     1.924490  4.580504  3.286904
  C     1.639940  7.661220  3.072189
  C     0.755988  4.000449  2.630173
  C     0.417361  7.372427  2.349225
  N     2.943886  4.865110  2.490931
  N     2.703708  7.934271  2.287098
  N     0.925911  3.913338  1.318641
  N     0.506258  7.414599  1.010704
  N     0.333912  4.009728  5.244345
  N    -0.207628  7.537759  4.838852
  S    -0.444449  3.714213  3.810815
  S    -0.959939  7.390974  3.362359
  S     2.377165  4.609555  0.983330
  S     2.124624  7.750053  0.737505
  S     1.903964  4.477320  5.068983
  S     1.447820  7.689878  4.807972
