16  
    
  C    -6.135227  0.950627  1.457256
  C    -6.150124  4.467718  1.898549
  C    -7.277967  0.292006  0.903167
  C    -7.301027  4.039908  1.108730
  N    -5.290822  1.306858  0.483264
  N    -5.083068  4.697441  1.099157
  N    -7.243518  0.121168 -0.426626
  N    -7.100068  3.990409 -0.213084
  N    -7.551600  0.192727  3.467145
  N    -8.061958  4.146922  3.510350
  S    -8.331702 -0.408968  2.101557
  S    -8.632841  3.603306  2.012213
  S    -5.839757  0.824506 -0.974813
  S    -5.517611  4.368378 -0.459077
  S    -6.049497  0.965383  3.160114
  S    -6.422589  4.403463  3.585058
