16  
    
  C    -0.387113  3.400094  2.664125
  C    -0.213834  7.108427  2.525594
  C    -1.434786  2.567918  2.082942
  C    -1.413010  6.619195  1.787949
  N     0.681923  3.477148  1.894965
  N     0.852931  7.138863  1.700327
  N    -1.144382  2.160256  0.861487
  N    -1.178772  6.361725  0.505859
  N    -2.270489  3.090918  4.489056
  N    -2.250841  6.893165  4.219627
  S    -2.775888  2.288325  3.099932
  S    -2.839023  6.533632  2.737048
  S     0.343502  2.797126  0.443118
  S     0.431147  6.678114  0.175491
  S    -0.687575  3.771475  4.352788
  S    -0.686423  7.367534  4.210290
