16  
    
  C    -1.853299  2.318843  2.641648
  C    -1.776072  5.880633  2.355908
  C    -3.028152  1.957246  1.952997
  C    -2.964049  5.669836  1.630709
  N    -0.903050  2.778163  1.816969
  N    -0.678032  5.949193  1.595566
  N    -2.965258  1.871575  0.609754
  N    -2.813175  5.774457  0.305910
  N    -3.726408  2.082318  4.399469
  N    -3.505640  5.597303  4.069285
  S    -4.508041  1.930262  2.929077
  S    -4.343124  5.358708  2.631114
  S    -1.398752  2.418094  0.277902
  S    -1.165337  5.862386  0.002279
  S    -2.086654  2.414834  4.330867
  S    -1.858523  5.825514  4.060897
