16  
    
  C    -3.325821  1.726104  2.008148
  C    -3.084671  5.506478  2.058480
  C    -4.624745  1.333899  1.474280
  C    -4.264950  4.929491  1.424203
  N    -2.341226  1.909863  1.104176
  N    -1.975642  5.624537  1.319207
  N    -4.655970  1.276261  0.143364
  N    -4.068105  4.715176  0.104485
  N    -4.927540  1.400414  4.051252
  N    -4.884437  5.167877  3.900136
  S    -5.834057  1.084599  2.720968
  S    -5.634955  4.670899  2.487940
  S    -3.141944  1.678048 -0.422100
  S    -2.534950  5.148949 -0.203075
  S    -3.335169  1.860863  3.827756
  S    -3.393797  5.743780  3.691208
