16  
    
  C     3.604996  5.429335  3.582116
  C     3.445442  9.173678  3.629899
  C     2.392836  4.929417  2.909273
  C     2.306057  8.639022  2.888133
  N     4.661967  5.625495  2.780663
  N     4.461225  9.402015  2.769152
  N     2.494456  5.044364  1.584258
  N     2.452910  8.371348  1.620331
  N     1.763414  5.277433  5.447248
  N     1.585791  8.582298  5.322648
  S     1.061752  4.916971  4.053553
  S     0.966929  8.166487  3.843502
  S     4.063348  5.372292  1.181556
  S     3.910095  8.961181  1.224260
  S     3.394299  5.436027  5.329555
  S     3.138899  9.193730  5.390790
