16  
    
  C     2.957823  4.800563  3.687439
  C     2.818405  8.852294  3.353606
  C     1.639867  4.978053  3.092386
  C     1.596456  8.462234  2.714432
  N     3.951579  4.909448  2.799544
  N     3.942432  8.776697  2.631191
  N     1.632915  4.881519  1.770223
  N     1.860758  7.966139  1.459720
  N     1.280237  5.522125  5.512273
  N     1.121637  8.745301  5.272051
  S     0.336399  5.268477  4.185310
  S     0.202420  8.514586  3.904189
  S     3.171993  4.804117  1.282609
  S     3.462643  8.199110  1.143830
  S     2.919096  5.359301  5.370917
  S     2.795259  9.023550  5.037915
