16  
    
  C     0.572406  3.629242  2.730687
  C     0.755396  7.660172  2.691212
  C    -0.629256  3.162898  2.122888
  C    -0.444664  7.132792  2.052707
  N     1.630104  3.711279  1.935328
  N     1.665888  8.051375  1.788488
  N    -0.557865  3.304463  0.797515
  N    -0.454479  7.143778  0.730972
  N    -1.245326  3.283878  4.622953
  N    -0.841075  6.883374  4.498624
  S    -2.012595  2.827349  3.176228
  S    -1.708212  6.599730  3.109071
  S     1.007033  3.602353  0.403680
  S     1.055433  7.750512  0.307815
  S     0.383417  3.602070  4.450821
  S     0.624280  7.662732  4.382520
