16  
    
  C    -1.870030  2.456014  2.626854
  C    -1.772625  5.916783  2.312374
  C    -3.040892  1.948100  1.878491
  C    -3.066839  5.576732  1.664786
  N    -0.824858  2.660691  1.821248
  N    -0.834420  6.285991  1.440197
  N    -2.879839  1.897248  0.551447
  N    -2.969621  5.512693  0.329881
  N    -3.696347  2.086040  4.332546
  N    -3.422518  5.656938  4.246643
  S    -4.436524  1.609270  2.915453
  S    -4.337710  5.469686  2.854008
  S    -1.289293  2.212896  0.269315
  S    -1.442086  5.987066 -0.036263
  S    -2.112803  2.541681  4.285599
  S    -1.748723  6.030823  4.065019
