16  
    
  C     1.814561  4.493064  3.359715
  C     1.431217  8.187905  2.989202
  C     0.521970  4.124760  2.806052
  C     0.371129  7.391744  2.386391
  N     2.794458  4.672151  2.448594
  N     2.371684  8.655579  2.134913
  N     0.651849  3.760513  1.562454
  N     0.558685  7.044188  1.120502
  N     0.039470  4.552450  5.243098
  N    -0.341993  7.555594  4.852236
  S    -0.819235  4.277662  3.911024
  S    -0.983132  6.978270  3.422638
  S     2.248311  4.018291  1.030059
  S     1.905427  7.934211  0.706592
  S     1.697137  4.855520  5.054904
  S     1.197115  8.211330  4.788450
