16  
    
  C     2.870811  5.061752  3.605730
  C     2.963910  8.639360  3.543495
  C     1.601592  4.917680  2.975059
  C     1.735115  8.309041  2.822085
  N     3.935541  4.865649  2.849620
  N     4.039069  8.699247  2.760752
  N     1.682674  4.803475  1.645072
  N     1.864972  8.207238  1.505468
  N     1.189671  5.394805  5.551537
  N     1.094569  8.719275  5.231718
  S     0.326262  5.161836  4.121524
  S     0.368029  8.421621  3.787047
  S     3.332502  4.925447  1.295380
  S     3.523978  8.293645  1.169228
  S     2.864905  5.253363  5.313501
  S     2.678626  9.056291  5.210485
