16  
    
  C    -3.765914  1.978855  1.955760
  C    -3.492084  5.373398  1.943866
  C    -4.658959  1.007864  1.302726
  C    -4.760527  4.907473  1.478802
  N    -2.721636  2.342839  1.234734
  N    -2.494710  5.403566  1.081353
  N    -4.380200  0.767616  0.023392
  N    -4.690722  4.458980  0.240841
  N    -5.626253  1.435797  3.674218
  N    -5.070875  5.283259  3.941964
  S    -6.009727  0.606746  2.359492
  S    -6.067228  4.913572  2.638078
  S    -2.984885  1.623818 -0.291233
  S    -3.133869  4.814379 -0.271844
  S    -4.214885  2.236376  3.597573
  S    -3.548232  5.760736  3.622815
