16  
    
  C    -1.782773  2.411688  1.939782
  C    -1.844766  6.452236  2.181762
  C    -3.054048  2.044296  1.385655
  C    -2.884736  5.578592  1.638719
  N    -0.762135  2.468545  1.091308
  N    -0.996566  6.836530  1.247486
  N    -3.035622  1.994300  0.073760
  N    -2.685100  5.177069  0.419242
  N    -3.387071  2.111760  3.942973
  N    -3.536827  6.079383  4.087806
  S    -4.278803  1.873148  2.568211
  S    -4.177288  5.459502  2.682522
  S    -1.425195  2.180399 -0.386695
  S    -1.262855  5.870538 -0.105801
  S    -1.805672  2.600867  3.714010
  S    -2.165870  7.002560  3.811022
