16  
    
  C     2.837621  5.420557  3.869087
  C     2.418779  8.574400  3.382480
  C     1.732370  4.666381  3.368823
  C     1.314386  8.017554  2.680124
  N     3.869861  5.522916  3.043644
  N     3.475297  8.698842  2.572920
  N     1.827270  4.287554  2.102713
  N     1.421194  7.776412  1.384887
  N     1.190969  5.339524  5.818133
  N     0.444249  8.463053  5.054829
  S     0.400224  4.784431  4.403181
  S    -0.102692  7.770240  3.654620
  S     3.373243  4.751133  1.641415
  S     2.960495  8.254868  0.991881
  S     2.821392  5.734856  5.536980
  S     2.063261  8.839165  5.062075
