16  
    
  C    -1.177810  2.978270  2.260167
  C    -0.958246  6.921722  2.443426
  C    -2.529899  2.793268  1.711952
  C    -2.235834  6.644851  1.867459
  N    -0.162422  3.018551  1.385235
  N    -0.026249  7.081766  1.492273
  N    -2.520844  2.791407  0.375932
  N    -2.245202  6.437570  0.542914
  N    -2.885564  3.136102  4.267869
  N    -2.609611  6.728852  4.415584
  S    -3.736017  2.739817  2.866423
  S    -3.517485  6.559794  3.004698
  S    -0.929270  2.887483 -0.108505
  S    -0.716653  6.879353  0.009245
  S    -1.214583  3.302726  3.991835
  S    -0.995985  7.005510  4.204567
