16  
    
  C    -1.589865  2.732633  2.338604
  C    -1.527990  6.264778  2.372633
  C    -2.727875  2.124300  1.645269
  C    -2.796110  5.870370  1.727049
  N    -0.440467  2.759155  1.637585
  N    -0.502927  6.450367  1.546147
  N    -2.502258  1.992410  0.340213
  N    -2.705069  5.664987  0.445978
  N    -3.509583  2.495761  4.094156
  N    -3.357463  6.210509  4.172088
  S    -4.086947  1.924199  2.628179
  S    -4.086237  5.579336  2.832126
  S    -0.885552  2.204703  0.152819
  S    -1.148663  6.125913  0.042233
  S    -1.908017  2.962649  4.061992
  S    -1.725088  6.551193  4.014773
