16  
    
  C    -2.683101  2.250651  2.027536
  C    -2.581734  5.806605  2.063159
  C    -3.911755  1.887041  1.293076
  C    -3.825453  5.409969  1.415838
  N    -1.651708  2.251705  1.192047
  N    -1.463866  5.831483  1.387424
  N    -3.820601  1.931680 -0.024254
  N    -3.542177  5.038534  0.191952
  N    -4.538790  1.912025  3.829242
  N    -4.464947  5.734296  3.878879
  S    -5.291738  1.798350  2.313709
  S    -5.230549  5.290881  2.428517
  S    -2.170872  2.108748 -0.371218
  S    -2.013230  5.407916 -0.190591
  S    -2.928901  2.454209  3.748182
  S    -2.826984  6.194813  3.720165
