16  
    
  C    -4.395326  1.515694  1.942251
  C    -4.648044  4.945931  1.684025
  C    -5.603071  1.006682  1.375564
  C    -5.787500  4.458613  1.001857
  N    -3.455568  1.784409  1.071412
  N    -3.588167  5.297515  0.952663
  N    -5.622790  0.786858  0.073855
  N    -5.592556  4.308655 -0.317343
  N    -5.885774  1.017341  3.880968
  N    -6.442247  4.688140  3.493599
  S    -6.787434  0.591326  2.537345
  S    -7.032726  3.892829  2.092643
  S    -4.055805  1.324882 -0.378370
  S    -4.113939  4.953124 -0.551092
  S    -4.428180  1.690788  3.657071
  S    -4.826118  5.088323  3.361080
