16  
    
  C     2.195904  4.466125  3.055242
  C     2.041843  8.286494  3.145063
  C     1.045707  3.930206  2.278984
  C     0.859523  7.617586  2.590928
  N     3.345234  4.326253  2.420487
  N     3.087000  8.254159  2.306107
  N     1.286160  3.860816  0.971372
  N     0.932838  7.130469  1.339219
  N     0.241848  4.440706  4.692860
  N     0.071872  8.403311  4.927298
  S    -0.385318  3.858244  3.241286
  S    -0.519873  7.532779  3.588945
  S     2.990231  4.019978  0.821341
  S     2.543848  7.424848  0.941741
  S     1.878210  4.767158  4.752840
  S     1.640345  9.003849  4.721486
