16  
    
  C     2.891735  5.327540  3.608323
  C     2.926077  8.795243  3.467051
  C     1.728119  4.912913  2.884653
  C     1.771465  8.326670  2.694246
  N     3.997939  5.374191  2.859854
  N     3.991776  9.025460  2.764189
  N     1.887956  4.856497  1.550286
  N     2.000429  8.117274  1.419901
  N     1.157044  4.693970  5.371839
  N     1.007831  8.669919  5.229107
  S     0.319777  4.828095  3.950790
  S     0.383969  8.078916  3.737293
  S     3.521080  5.175334  1.279350
  S     3.664612  8.527419  1.217555
  S     2.676965  5.319190  5.356809
  S     2.672355  8.803995  5.151705
