16  
    
  C    -1.604699  2.880587  2.038396
  C    -1.154819  6.807294  2.198662
  C    -2.550815  2.069410  1.356463
  C    -2.435971  6.523437  1.693237
  N    -0.538136  3.113968  1.286495
  N    -0.192918  6.821775  1.325545
  N    -2.396559  1.881673  0.033090
  N    -2.391800  6.203631  0.423588
  N    -3.321049  2.383779  3.847457
  N    -2.800416  6.984398  4.151350
  S    -3.873779  1.637570  2.444297
  S    -3.699755  6.345469  2.870009
  S    -0.849084  2.516777 -0.240639
  S    -0.874580  6.565364 -0.139567
  S    -1.877354  3.229535  3.705316
  S    -1.157752  7.125736  3.875695
