16  
    
  C    -1.794012  2.276514  1.983305
  C    -1.860410  6.126000  2.114610
  C    -3.029499  2.017736  1.270265
  C    -3.069412  5.685862  1.437164
  N    -0.702123  2.463280  1.209900
  N    -0.829861  6.296200  1.343330
  N    -2.797159  1.829144 -0.042913
  N    -2.880181  5.564434  0.089935
  N    -3.654885  1.967105  3.798195
  N    -3.602723  5.966876  4.021042
  S    -4.392738  1.919961  2.300618
  S    -4.327535  5.727674  2.582102
  S    -1.165920  2.098427 -0.313129
  S    -1.226602  5.897682 -0.261139
  S    -2.023178  2.400369  3.731979
  S    -2.003746  6.358284  3.810670
