16  
    
  C     2.886657  5.132954  3.184044
  C     2.825112  9.056510  3.580641
  C     1.687415  4.516145  2.631073
  C     1.805389  8.380727  2.847142
  N     3.822943  5.414390  2.300855
  N     3.759357  9.635159  2.825260
  N     1.844256  4.185672  1.353205
  N     2.043201  8.218786  1.551710
  N     1.262273  4.852823  5.170940
  N     1.121390  8.642493  5.388337
  S     0.546584  4.166747  3.885898
  S     0.462361  8.061781  4.016470
  S     3.283755  4.851441  0.842899
  S     3.541896  9.096297  1.277335
  S     2.788102  5.476517  4.891548
  S     2.657673  9.257640  5.235755
