16  
    
  C    -0.900810  3.087838  2.464111
  C    -0.628432  6.645698  2.356588
  C    -2.236965  2.907878  1.815357
  C    -1.814548  6.179041  1.683078
  N     0.151628  3.016071  1.664673
  N     0.457167  6.703763  1.558703
  N    -2.112261  2.616352  0.543739
  N    -1.657245  6.044848  0.372640
  N    -2.725423  3.136791  4.295199
  N    -2.509624  6.422400  4.290508
  S    -3.526300  2.720934  2.914070
  S    -3.246455  6.080437  2.790924
  S    -0.503748  2.787310  0.132379
  S    -0.092776  6.299658 -0.007526
  S    -1.091479  3.399353  4.195649
  S    -0.870184  6.684219  4.134853
