16  
    
  C    -5.429050  1.209135  1.631327
  C    -5.174573  4.824386  1.379198
  C    -6.712043  0.896863  0.950448
  C    -6.452732  4.419917  0.815460
  N    -4.399444  1.067508  0.819271
  N    -4.112129  4.725152  0.587903
  N    -6.672598  0.733733 -0.355298
  N    -6.360793  4.086581 -0.469382
  N    -7.186259  1.086080  3.477685
  N    -6.895785  4.879968  3.379000
  S    -8.032206  0.831643  2.067930
  S    -7.760471  4.420041  2.054955
  S    -4.992174  0.816682 -0.726468
  S    -4.738545  4.145710 -0.853088
  S    -5.529372  1.263788  3.384035
  S    -5.253122  5.065834  3.103560
