16  
    
  C    -0.341183  3.348804  2.637871
  C    -0.315819  7.058199  2.414420
  C    -1.497619  2.680284  2.066895
  C    -1.459074  6.700497  1.689977
  N     0.703975  3.334930  1.808634
  N     0.757959  7.216709  1.674265
  N    -1.404131  2.507385  0.745635
  N    -1.289235  6.559240  0.375670
  N    -2.187581  3.189004  4.487800
  N    -2.083548  6.795210  4.129052
  S    -2.822084  2.429407  3.140128
  S    -2.885514  6.570403  2.686279
  S     0.178933  2.830991  0.333747
  S     0.373095  6.771776  0.173145
  S    -0.588367  3.722608  4.257380
  S    -0.482109  7.264734  4.097646
