16  
    
  C    -3.597348  1.797176  1.809420
  C    -3.558427  5.693362  1.783452
  C    -4.592736  0.994489  1.242398
  C    -4.805910  5.290607  1.179675
  N    -2.639991  2.189973  1.018406
  N    -2.568177  5.872131  0.920276
  N    -4.384944  0.622873  0.005575
  N    -4.772427  5.304312 -0.147869
  N    -5.361660  1.509167  3.642320
  N    -5.385848  5.224747  3.684412
  S    -5.901935  0.682662  2.288788
  S    -6.155128  4.949715  2.202129
  S    -3.007271  1.455403 -0.412956
  S    -3.178477  5.582846 -0.574793
  S    -3.812585  2.186443  3.462442
  S    -3.792695  5.712589  3.489576
