16  
    
  C     0.831131  4.069758  2.486200
  C     1.544516  8.318672  3.185212
  C    -0.311660  3.479241  1.876282
  C     0.244189  8.170386  2.543113
  N     1.805235  4.325399  1.600018
  N     2.580590  8.473340  2.358178
  N    -0.081361  3.161253  0.599936
  N     0.252267  8.125756  1.194621
  N    -0.884605  3.774680  4.326277
  N    -0.215915  8.193307  5.061020
  S    -1.583638  3.125905  2.995333
  S    -1.082054  7.978731  3.665964
  S     1.442698  3.674087  0.188074
  S     1.891212  8.349781  0.877392
  S     0.695891  4.251482  4.233222
  S     1.438411  8.454587  4.939319
