16  
    
  C    -1.470872  2.560989  2.270860
  C    -1.418524  6.656734  2.185748
  C    -2.571023  1.979400  1.591759
  C    -2.620572  6.132020  1.654225
  N    -0.456494  2.989566  1.483418
  N    -0.371065  6.752078  1.342867
  N    -2.302608  1.711603  0.308203
  N    -2.541508  5.816443  0.373531
  N    -3.415143  2.456475  3.928807
  N    -2.976172  6.237430  4.199807
  S    -3.931928  1.735399  2.551716
  S    -3.918845  6.120764  2.824259
  S    -0.802421  2.335331 -0.024029
  S    -1.004263  6.220065 -0.083839
  S    -1.866132  3.022783  3.920292
  S    -1.460742  6.819668  3.882948
