16  
    
  C     3.197716  5.195240  3.478276
  C     3.349734  8.922164  3.679105
  C     1.903261  4.752965  2.906923
  C     2.069796  8.780578  3.077356
  N     4.242589  4.964640  2.652917
  N     4.384607  8.741446  2.831479
  N     2.011434  4.532982  1.587624
  N     2.135690  8.533505  1.756136
  N     1.383125  5.097369  5.386546
  N     1.813437  9.079930  5.661771
  S     0.573584  4.714602  4.002357
  S     0.848888  9.139200  4.323769
  S     3.574978  4.660578  1.147219
  S     3.715460  8.309670  1.413356
  S     3.016932  5.329216  5.264019
  S     3.423924  9.235430  5.420566
