16  
    
  C    -2.357124  1.935974  2.050473
  C    -2.685574  5.706610  2.081135
  C    -3.674289  1.848085  1.474345
  C    -3.883451  5.290192  1.417446
  N    -1.330724  1.887691  1.191364
  N    -1.616565  5.797861  1.254557
  N    -3.654936  1.677294  0.154408
  N    -3.767847  5.221786  0.088570
  N    -4.065910  2.285837  3.988271
  N    -4.333069  5.494014  3.912545
  S    -4.998742  2.083760  2.642319
  S    -5.090666  5.014420  2.509670
  S    -2.033833  1.816169 -0.305493
  S    -2.112080  5.472427 -0.210166
  S    -2.447115  2.356608  3.722338
  S    -2.709320  5.773171  3.800094
