16  
    
  C     2.045828  4.487320  2.928111
  C     2.067656  8.041693  3.189759
  C     0.839411  3.924849  2.384061
  C     0.890333  7.579944  2.498008
  N     3.154523  4.520410  2.196238
  N     3.155682  8.058529  2.422440
  N     1.068323  3.641304  1.112682
  N     1.130866  7.323197  1.237783
  N     0.328364  4.449742  4.853280
  N     0.035745  8.146014  4.797044
  S    -0.531689  3.939463  3.521049
  S    -0.522598  7.444964  3.416306
  S     2.601266  4.006358  0.714728
  S     2.647736  7.648821  0.861553
  S     1.902130  4.782426  4.705310
  S     1.693354  8.332540  4.896554
