16  
    
  C    -5.214287  1.139622  1.809707
  C    -5.131860  5.033473  1.317305
  C    -6.408824  0.595798  1.161592
  C    -6.329727  4.584139  0.651789
  N    -4.200162  1.304063  0.989234
  N    -4.008957  5.057868  0.602006
  N    -6.240295  0.202077 -0.068005
  N    -6.094736  4.179092 -0.576725
  N    -7.059902  1.024484  3.628449
  N    -6.941112  4.606345  3.137435
  S    -7.753865  0.421220  2.180355
  S    -7.663357  4.156041  1.715932
  S    -4.686593  0.743127 -0.502669
  S    -4.467243  4.420025 -0.888009
  S    -5.358924  1.357394  3.522575
  S    -5.394986  5.276612  3.043099
