16  
    
  C    -0.764644  2.964748  2.529167
  C    -1.215289  6.476305  2.484983
  C    -2.003480  2.466211  1.921052
  C    -2.383474  5.958578  1.796274
  N     0.319282  2.993994  1.725240
  N    -0.205437  6.856093  1.691058
  N    -1.856104  2.506883  0.576239
  N    -2.183207  5.807937  0.465589
  N    -2.492893  2.854110  4.348868
  N    -2.955302  5.960084  4.400089
  S    -3.312126  2.431104  3.011983
  S    -3.692263  5.621168  2.952067
  S    -0.257685  2.702142  0.211324
  S    -0.540573  6.282264  0.158717
  S    -0.938106  3.279390  4.230220
  S    -1.429145  6.547592  4.223820
