16  
    
  C     0.625797  3.684716  3.190801
  C     1.076669  7.574259  2.717935
  C    -0.517051  3.391229  2.381069
  C    -0.024162  7.045362  2.067786
  N     1.635453  4.120784  2.425430
  N     2.190869  7.686691  2.001058
  N    -0.244375  3.230076  1.101908
  N     0.147186  6.872623  0.745932
  N    -1.197117  3.106868  4.863316
  N    -0.708148  7.187686  4.593101
  S    -1.832235  2.840833  3.348333
  S    -1.365455  6.696932  3.113447
  S     1.250234  3.861588  0.892987
  S     1.766729  7.263402  0.487610
  S     0.365892  3.678221  4.960325
  S     0.816429  7.832527  4.452338
