16  
    
  C     0.950760  3.813424  2.540067
  C     1.573008  8.024375  3.266334
  C    -0.316178  3.564336  1.903421
  C     0.250212  7.869874  2.660289
  N     1.936680  3.994440  1.651462
  N     2.617005  8.110806  2.424520
  N    -0.167617  3.277134  0.621361
  N     0.269805  7.866423  1.328292
  N    -0.818967  3.550699  4.439426
  N    -0.162604  7.879924  5.172371
  S    -1.638887  3.182498  3.008133
  S    -1.062815  7.902149  3.780434
  S     1.336736  3.714342  0.175838
  S     1.903124  7.990807  0.970597
  S     0.691634  4.111337  4.197231
  S     1.461089  8.053033  5.020999
