16  
    
  C    -3.744280  1.967129  1.966405
  C    -3.492880  5.393999  1.948601
  C    -4.658193  1.035602  1.290861
  C    -4.798008  4.927385  1.445825
  N    -2.729589  2.395866  1.228131
  N    -2.506220  5.405566  1.081118
  N    -4.379448  0.759239  0.011278
  N    -4.681772  4.434395  0.201469
  N    -5.629350  1.415656  3.709757
  N    -5.119341  5.275004  3.933288
  S    -6.001949  0.592708  2.381249
  S    -6.074631  4.911167  2.624034
  S    -2.987288  1.639860 -0.316317
  S    -3.155056  4.820132 -0.299918
  S    -4.241963  2.257962  3.566939
  S    -3.533741  5.782089  3.643542
