16  
    
  C    -4.676733  1.093743  1.463557
  C    -4.796786  4.683904  1.696637
  C    -5.914216  0.961253  0.755690
  C    -6.055583  4.502453  1.019337
  N    -3.592339  1.161899  0.663106
  N    -3.755949  4.826834  0.857374
  N    -5.730025  0.775105 -0.559933
  N    -5.958317  4.390581 -0.300043
  N    -6.425146  0.740137  3.331932
  N    -6.600180  4.133835  3.544223
  S    -7.215824  0.667794  1.856361
  S    -7.397310  4.179001  2.067502
  S    -4.171563  0.911605 -0.862347
  S    -4.345401  4.545647 -0.687887
  S    -4.800639  0.916352  3.242925
  S    -5.033617  4.621727  3.408879
