16  
    
  C     2.856927  5.293252  3.354082
  C     2.865822  8.943855  3.338358
  C     1.769017  4.543866  2.739684
  C     1.712134  8.364521  2.706121
  N     3.879062  5.561645  2.518456
  N     3.891371  9.180518  2.583304
  N     1.860215  4.550321  1.391399
  N     1.850765  8.339467  1.413300
  N     1.171055  4.857887  5.280588
  N     1.152921  8.267723  5.255087
  S     0.456485  4.290755  3.939410
  S     0.508477  7.754910  3.797317
  S     3.347264  5.122278  0.984883
  S     3.367561  8.926007  1.011612
  S     2.745268  5.436617  5.045201
  S     2.643851  9.091759  5.081590
