16  
    
  C     0.711624  3.609652  2.805333
  C     0.535777  7.659030  2.678015
  C    -0.550801  3.381028  2.217881
  C    -0.611781  6.912179  2.193485
  N     1.623617  4.061168  1.909225
  N     1.531955  7.820205  1.820220
  N    -0.593624  3.295162  0.882389
  N    -0.498914  6.659810  0.895979
  N    -0.930610  3.522463  4.790456
  N    -0.977360  7.298951  4.788864
  S    -1.850434  3.237621  3.377795
  S    -1.783456  6.633277  3.477415
  S     0.939872  3.702732  0.414017
  S     0.934667  7.220573  0.339531
  S     0.656988  3.721938  4.536622
  S     0.458168  8.099704  4.409194
