16  
    
  C     0.712725  3.797221  3.175407
  C     1.235070  7.519197  2.846410
  C    -0.504212  3.362878  2.516835
  C     0.025785  7.047102  2.142141
  N     1.741423  4.082613  2.412770
  N     2.331247  7.679360  2.084431
  N    -0.352555  3.352043  1.205707
  N     0.201101  6.782555  0.865606
  N    -1.005155  3.236723  5.028325
  N    -0.767451  7.427694  4.568228
  S    -1.862101  2.995028  3.543810
  S    -1.411566  6.806206  3.155522
  S     1.243822  3.753597  0.870060
  S     1.781926  7.171776  0.568807
  S     0.556588  3.622391  4.855380
  S     0.805151  7.953813  4.554498
