16  
    
  C    -1.493944  3.306056  1.975347
  C    -1.011967  6.974987  2.436948
  C    -2.547868  2.565265  1.383887
  C    -2.309117  6.796660  1.789221
  N    -0.566300  3.735251  1.154067
  N     0.039497  7.063261  1.615738
  N    -2.303526  2.242978  0.143174
  N    -2.297437  6.767226  0.451549
  N    -3.167615  2.731625  3.871707
  N    -2.644922  6.631100  4.452309
  S    -3.855609  2.134731  2.488703
  S    -3.562432  6.645384  3.048652
  S    -0.941777  3.044686 -0.314229
  S    -0.667545  6.758263  0.128737
  S    -1.685944  3.435866  3.698960
  S    -1.045136  7.100835  4.162798
