16  
    
  C    -1.727042  2.351671  1.971508
  C    -1.818891  6.531027  2.122439
  C    -3.033235  2.088385  1.316334
  C    -2.872005  5.647148  1.614802
  N    -0.766329  2.341966  1.094027
  N    -0.846980  6.810834  1.255072
  N    -3.015255  1.980387 -0.004008
  N    -2.657777  5.215741  0.366469
  N    -3.396243  2.211074  3.886212
  N    -3.465500  6.005734  4.006320
  S    -4.248715  1.838733  2.537285
  S    -4.238664  5.501852  2.632176
  S    -1.437875  2.248630 -0.420345
  S    -1.223199  5.890990 -0.048226
  S    -1.789095  2.565442  3.658248
  S    -2.169936  7.004820  3.723040
