16  
    
  C    -4.421638  1.549262  1.955115
  C    -4.648578  4.965237  1.689352
  C    -5.585528  1.004340  1.358517
  C    -5.813898  4.456168  1.012459
  N    -3.460038  1.770940  1.075030
  N    -3.579713  5.299713  0.953195
  N    -5.613038  0.794879  0.050939
  N    -5.605230  4.308440 -0.310157
  N    -5.898798  1.030042  3.887355
  N    -6.435771  4.704491  3.510624
  S    -6.793164  0.597318  2.528149
  S    -7.041990  3.910795  2.099399
  S    -4.049442  1.311273 -0.364045
  S    -4.124690  4.943670 -0.544465
  S    -4.411989  1.708869  3.664326
  S    -4.816663  5.110214  3.349465
