16  
    
  C     0.638708  3.659166  2.715581
  C     0.614662  7.632551  2.713078
  C    -0.637261  3.418164  2.135220
  C    -0.520622  7.032145  2.234228
  N     1.591493  3.865116  1.826296
  N     1.496769  7.962501  1.781705
  N    -0.609718  3.258494  0.809015
  N    -0.508586  6.797587  0.937725
  N    -0.937824  3.329167  4.723772
  N    -1.055497  7.345270  4.640555
  S    -1.924304  3.165684  3.388074
  S    -1.749579  6.631195  3.290462
  S     0.893335  3.732737  0.378289
  S     0.914327  7.367430  0.360357
  S     0.669753  3.519377  4.451644
  S     0.503041  7.941424  4.416747
