16  
    
  C    -0.369343  3.294203  2.515348
  C    -0.324550  7.034441  2.229087
  C    -1.702781  3.077505  1.949672
  C    -1.556987  6.583308  1.724554
  N     0.605968  3.549836  1.643992
  N     0.713512  7.095926  1.368075
  N    -1.647562  2.868830  0.646049
  N    -1.564864  6.419915  0.416451
  N    -2.010257  3.162090  4.594968
  N    -1.902301  6.668804  4.361236
  S    -2.915882  2.987818  3.187897
  S    -2.808022  6.342694  3.049013
  S    -0.071140  3.154303  0.158767
  S    -0.056187  6.820642 -0.151883
  S    -0.365217  3.437578  4.242496
  S    -0.334523  7.108723  4.057739
