16  
    
  C     0.955614  4.137410  2.705781
  C     1.090668  7.559408  3.039080
  C    -0.211370  3.401093  2.370496
  C    -0.155102  7.177555  2.483975
  N     1.964070  3.960397  1.775165
  N     2.174360  7.638720  2.237491
  N    -0.238538  2.999503  1.097681
  N    -0.066210  6.891599  1.173247
  N    -0.721982  4.248268  4.665780
  N    -0.595501  7.399316  5.060224
  S    -1.494888  3.393161  3.519653
  S    -1.502651  7.102084  3.703310
  S     1.269044  3.248729  0.497572
  S     1.534249  7.155429  0.787330
  S     0.916340  4.551435  4.356324
  S     0.933437  8.001081  4.789510
