16  
    
  C     2.265739  4.458972  3.065381
  C     1.944907  8.404399  3.049582
  C     1.130056  3.863612  2.361313
  C     0.795398  7.670638  2.533102
  N     3.353478  4.478096  2.303043
  N     3.049422  8.383015  2.327346
  N     1.239700  3.729503  1.034103
  N     1.004065  7.112413  1.330547
  N     0.292107  4.365948  4.705308
  N     0.139059  8.659918  4.881741
  S    -0.366451  3.872884  3.265967
  S    -0.530512  7.622401  3.754601
  S     2.903308  3.952310  0.756497
  S     2.611682  7.641221  0.940123
  S     1.858880  4.574517  4.726148
  S     1.754027  9.076084  4.623914
