16  
    
  C    -1.662625  2.675859  2.363238
  C    -1.674191  6.174661  2.414734
  C    -2.809600  2.131320  1.674624
  C    -2.869025  5.783773  1.739773
  N    -0.562490  2.728847  1.632484
  N    -0.626394  6.334926  1.610621
  N    -2.595809  1.831671  0.390277
  N    -2.734825  5.582570  0.402703
  N    -3.537734  2.430266  4.162636
  N    -3.489092  5.909067  4.288780
  S    -4.263536  2.129572  2.677393
  S    -4.179571  5.401844  2.855893
  S    -1.017208  2.281123  0.100674
  S    -1.135481  6.010514  0.035131
  S    -1.919145  2.848256  4.124805
  S    -1.886066  6.434784  4.115200
