16  
    
  C    -3.278207  1.943610  2.029002
  C    -3.136744  5.446169  2.110389
  C    -4.460887  1.403704  1.367433
  C    -4.272496  4.795212  1.466896
  N    -2.277019  2.112246  1.177496
  N    -2.125865  5.869391  1.308693
  N    -4.389204  1.307822  0.014456
  N    -4.062026  4.670139  0.160133
  N    -5.016647  1.567883  3.930475
  N    -4.856030  5.142912  3.976726
  S    -5.797662  1.161629  2.508923
  S    -5.577161  4.497868  2.569740
  S    -2.841370  1.809687 -0.404791
  S    -2.600422  5.272777 -0.201725
  S    -3.358270  1.873455  3.817784
  S    -3.366506  5.852083  3.762456
