16  
    
  C    -3.318100  1.916997  2.027536
  C    -3.104004  5.473430  2.075378
  C    -4.534356  1.505307  1.389400
  C    -4.226698  4.844572  1.491158
  N    -2.361445  2.171752  1.131877
  N    -2.099642  5.797350  1.302182
  N    -4.428409  1.305434  0.090075
  N    -4.029432  4.604685  0.200611
  N    -4.999588  1.536015  3.968719
  N    -4.922946  5.186863  3.985325
  S    -5.805832  1.106738  2.541069
  S    -5.554821  4.488453  2.583486
  S    -2.883858  1.811204 -0.379858
  S    -2.566405  5.254497 -0.225605
  S    -3.305833  1.870318  3.795847
  S    -3.407560  5.807681  3.722294
