16  
    
  C    -4.952156  1.032654  1.782204
  C    -4.821106  4.712881  1.729924
  C    -6.058670  0.452661  1.091244
  C    -5.889003  4.017602  1.114322
  N    -3.961474  1.250521  0.973389
  N    -3.821726  5.045908  0.936836
  N    -5.875453  0.191924 -0.191525
  N    -5.730005  3.876660 -0.192904
  N    -6.783191  0.932731  3.446710
  N    -6.721263  4.607769  3.465510
  S    -7.340825  0.125981  2.176588
  S    -7.327439  3.907112  2.111152
  S    -4.370038  0.834350 -0.535564
  S    -4.252144  4.601114 -0.615504
  S    -5.245997  1.515117  3.413072
  S    -5.160530  5.191137  3.318427
