16  
    
  C    -4.935265  1.011844  1.785602
  C    -4.806802  4.704815  1.742316
  C    -6.061211  0.450148  1.092386
  C    -5.878261  4.018467  1.123636
  N    -3.943150  1.266325  0.968581
  N    -3.814366  5.057334  0.945660
  N    -5.877311  0.185793 -0.195016
  N    -5.731183  3.868044 -0.188836
  N    -6.776832  0.936489  3.445475
  N    -6.712810  4.603367  3.482227
  S    -7.327329  0.123983  2.169164
  S    -7.312411  3.905651  2.118236
  S    -4.362736  0.841462 -0.546883
  S    -4.251270  4.588890 -0.600510
  S    -5.247189  1.511558  3.406003
  S    -5.151146  5.187506  3.335592
