16  
    
  C    -0.748322  3.003741  2.429197
  C    -1.004429  6.412014  2.542368
  C    -1.985908  2.628080  1.849979
  C    -2.214685  6.011139  1.796751
  N     0.312901  3.053624  1.646984
  N     0.064607  6.557638  1.755388
  N    -1.883952  2.415339  0.568198
  N    -2.029891  5.760482  0.508885
  N    -2.456488  2.726873  4.406480
  N    -2.890373  6.199461  4.198204
  S    -3.302127  2.443704  2.969646
  S    -3.563538  5.616070  2.809627
  S    -0.307431  2.770860  0.108271
  S    -0.528734  6.255658  0.238025
  S    -0.853915  3.259126  4.178464
  S    -1.281213  6.618123  4.219670
