16  
    
  C    -1.813067  2.214654  2.016283
  C    -1.874624  6.153025  2.145268
  C    -3.051368  2.017383  1.340872
  C    -3.137621  5.727620  1.512227
  N    -0.714980  2.332077  1.271139
  N    -0.820324  6.198172  1.282654
  N    -2.901359  1.848003  0.061771
  N    -3.008027  5.462399  0.231801
  N    -3.715113  2.191350  3.765519
  N    -3.586952  5.706565  3.958651
  S    -4.449144  1.778702  2.335454
  S    -4.525714  5.704012  2.580513
  S    -1.307688  2.129097 -0.293106
  S    -1.491309  5.777846 -0.217111
  S    -2.078596  2.413593  3.737554
  S    -1.936674  6.144926  3.843568
