16  
    
  C    -3.364169  1.586948  2.099239
  C    -3.129775  5.425354  2.076845
  C    -4.668344  1.288329  1.457287
  C    -4.317793  4.936222  1.417042
  N    -2.362853  1.634892  1.223109
  N    -2.081812  5.595650  1.265585
  N    -4.644330  1.098986  0.133423
  N    -4.218911  4.823115  0.063914
  N    -5.048870  1.651532  3.964563
  N    -4.875505  5.117338  3.915799
  S    -5.949506  1.132289  2.667985
  S    -5.699188  4.904651  2.449541
  S    -3.044622  1.372049 -0.313858
  S    -2.654537  5.125553 -0.262095
  S    -3.383918  1.739618  3.837937
  S    -3.354526  5.739148  3.810655
