16  
    
  C    -3.513616  1.822471  1.796269
  C    -3.616826  5.728619  1.784983
  C    -4.548424  0.898768  1.254126
  C    -4.854320  5.359001  1.100171
  N    -2.509095  2.144291  0.987572
  N    -2.567868  5.877907  0.976673
  N    -4.373909  0.655620 -0.065610
  N    -4.716636  5.264560 -0.218535
  N    -5.297586  1.524826  3.611709
  N    -5.381660  5.139735  3.552008
  S    -5.920380  0.740721  2.308922
  S    -6.182016  4.936236  2.137371
  S    -2.965017  1.420030 -0.494934
  S    -3.176552  5.645959 -0.574670
  S    -3.800789  2.129595  3.454436
  S    -3.768789  5.719006  3.537376
