16  
    
  C    -4.240503  1.630293  1.860795
  C    -4.265709  5.185304  1.695933
  C    -5.409726  1.097955  1.269767
  C    -5.484847  4.764735  1.148915
  N    -3.151009  1.679758  1.089103
  N    -3.229677  5.294048  0.889832
  N    -5.189245  0.642025  0.046439
  N    -5.422029  4.388367 -0.142247
  N    -6.007178  1.531562  3.761010
  N    -5.905242  5.059012  3.760763
  S    -6.764376  0.994705  2.441028
  S    -6.735946  4.652685  2.440134
  S    -3.662750  0.962684 -0.371328
  S    -3.798815  4.723710 -0.592026
  S    -4.549355  2.178856  3.513562
  S    -4.408990  5.613586  3.394706
