16  
    
  C     2.013762  4.337946  3.389930
  C     1.688400  7.748400  3.029295
  C     0.820257  4.002298  2.715242
  C     0.430410  7.526643  2.368980
  N     2.994672  4.618460  2.543649
  N     2.760630  7.942215  2.221742
  N     0.780684  4.143955  1.413764
  N     0.457748  7.587484  1.019165
  N     0.251268  3.997563  5.234716
  N    -0.065410  7.453547  4.916886
  S    -0.597586  3.686293  3.794038
  S    -0.927896  7.250313  3.508626
  S     2.343487  4.526862  1.003121
  S     2.130407  7.810590  0.694744
  S     1.823589  4.326951  5.098930
  S     1.577802  7.634165  4.757928
