16  
    
  C     3.556499  5.231884  3.603098
  C     3.484722  9.070250  3.545571
  C     2.272611  5.009331  2.911005
  C     2.364534  8.408834  2.863162
  N     4.540475  5.544978  2.791350
  N     4.469544  9.460200  2.804389
  N     2.410986  4.903591  1.582126
  N     2.466945  8.384329  1.554973
  N     1.819272  5.009520  5.481223
  N     1.723375  8.648184  5.361780
  S     0.943675  4.788216  4.022952
  S     0.991881  8.097651  3.978036
  S     3.994712  5.358986  1.262618
  S     4.047099  9.090434  1.231385
  S     3.443766  5.426756  5.286120
  S     3.272696  9.304892  5.169369
