16  
    
  C    -4.399463  1.318550  1.920451
  C    -4.524243  4.834199  1.729393
  C    -5.608302  0.797184  1.343736
  C    -5.657151  4.346819  0.960527
  N    -3.550127  1.780885  1.054456
  N    -3.514985  5.291943  0.941445
  N    -5.615589  0.682238  0.018662
  N    -5.459181  4.326115 -0.359127
  N    -5.920498  0.862343  3.862032
  N    -6.474574  4.149428  3.398820
  S    -6.787792  0.425020  2.530399
  S    -7.013465  3.784665  1.843655
  S    -4.118707  1.470228 -0.472364
  S    -4.019890  5.036572 -0.618487
  S    -4.418940  1.525896  3.717187
  S    -4.931054  4.832056  3.418030
