16  
    
  C     2.955361  5.196168  3.568960
  C     3.002802  8.780607  3.448950
  C     1.735070  4.893988  2.851043
  C     1.864475  8.219869  2.780760
  N     3.971637  5.525496  2.787605
  N     4.007580  9.178355  2.586278
  N     1.875860  4.804191  1.539847
  N     1.994236  7.996899  1.459078
  N     1.103306  4.926572  5.347586
  N     1.034567  8.426420  5.170051
  S     0.366644  4.576017  3.870674
  S     0.428625  7.977599  3.635930
  S     3.478914  5.278069  1.247877
  S     3.474189  8.683776  1.078854
  S     2.677171  5.346529  5.261362
  S     2.621591  8.856565  5.215785
