16  
    
  C     2.060606  5.038006  3.131675
  C     2.063131  8.814652  3.409204
  C     0.886570  4.460287  2.462402
  C     0.819838  8.401954  2.768721
  N     3.129965  5.297008  2.371029
  N     3.094080  8.906263  2.546541
  N     1.038343  4.478775  1.138044
  N     0.904893  8.250642  1.450903
  N     0.371209  4.408592  4.955800
  N     0.188699  8.596905  5.147931
  S    -0.507845  4.142710  3.543582
  S    -0.509052  8.111494  3.747264
  S     2.609623  4.908224  0.823127
  S     2.452860  8.650352  0.973161
  S     1.945610  4.771950  4.868048
  S     1.823733  8.913483  5.171269
