16  
    
  C     3.227023  5.091045  3.414488
  C     3.351979  9.171004  3.706681
  C     1.995270  4.700896  2.713770
  C     2.168673  8.832840  2.954040
  N     4.212414  5.389514  2.557992
  N     4.425092  9.194144  2.919292
  N     2.179657  4.455593  1.412174
  N     2.349259  8.610473  1.689577
  N     1.323304  4.703892  5.212606
  N     1.332438  8.855081  5.440457
  S     0.647863  4.318030  3.755442
  S     0.664885  8.572765  3.937440
  S     3.719342  4.816570  1.065949
  S     3.900414  8.958976  1.348398
  S     2.902494  5.369402  5.186608
  S     2.968171  9.263986  5.427276
