16  
    
  C    -2.395810  2.244789  2.136649
  C    -2.583649  5.654336  2.081839
  C    -3.647435  1.958816  1.470457
  C    -3.814686  5.230754  1.486463
  N    -1.399015  2.225787  1.283110
  N    -1.597174  5.823399  1.188088
  N    -3.652123  1.862887  0.140516
  N    -3.774038  5.080885  0.182221
  N    -4.164722  2.057970  4.053083
  N    -4.382072  5.347065  4.014339
  S    -4.970018  1.911705  2.594950
  S    -5.184938  4.953690  2.574723
  S    -2.023590  1.930225 -0.239585
  S    -2.223431  5.628337 -0.295090
  S    -2.516850  2.334294  3.887214
  S    -2.775099  5.710848  3.837708
