16  
    
  C    -3.158306  1.948119  1.733085
  C    -3.112032  5.895754  1.996872
  C    -4.282723  1.396130  0.996123
  C    -4.394789  5.549039  1.476846
  N    -2.109294  2.387590  1.019525
  N    -2.122390  6.014021  1.136496
  N    -3.978164  1.222412 -0.283742
  N    -4.381797  5.373549  0.139351
  N    -5.039219  1.561761  3.427783
  N    -4.680889  5.366206  4.007565
  S    -5.659221  1.030158  1.967887
  S    -5.629063  5.239853  2.706057
  S    -2.484938  1.873282 -0.537854
  S    -2.860319  5.790764 -0.341050
  S    -3.451492  2.230949  3.434689
  S    -3.094367  5.919406  3.689685
