16  
    
  C    -0.381948  3.386739  2.669588
  C    -0.214208  7.120584  2.523558
  C    -1.430237  2.583234  2.076708
  C    -1.409884  6.625500  1.783038
  N     0.675414  3.475616  1.890600
  N     0.854339  7.133520  1.705903
  N    -1.152684  2.164501  0.860552
  N    -1.182729  6.363763  0.500999
  N    -2.271945  3.093154  4.490403
  N    -2.250188  6.890833  4.220204
  S    -2.773292  2.288119  3.099042
  S    -2.840165  6.535489  2.736176
  S     0.340797  2.794748  0.439606
  S     0.432769  6.681470  0.172558
  S    -0.686345  3.774253  4.355268
  S    -0.685468  7.363433  4.207448
