16  
    
  C    -1.956658  2.575297  2.647858
  C    -1.701138  5.856063  2.314691
  C    -3.040859  1.985202  1.921184
  C    -2.933558  5.671372  1.686013
  N    -0.886140  2.681861  1.880978
  N    -0.685213  6.116264  1.462641
  N    -2.900396  1.783035  0.617959
  N    -2.894480  5.599198  0.357016
  N    -3.731310  2.101051  4.413969
  N    -3.528556  5.680507  4.214649
  S    -4.449113  1.774097  2.940297
  S    -4.275130  5.442947  2.764845
  S    -1.342688  2.329618  0.302508
  S    -1.338816  5.951935 -0.058387
  S    -2.119881  2.407369  4.376212
  S    -1.879259  5.797705  4.043956
