16  
    
  C     0.094236  3.570628  2.394404
  C     0.284902  7.537099  2.815109
  C    -1.247251  3.311256  1.799218
  C    -0.808159  6.827948  2.211038
  N     1.063035  3.707602  1.491576
  N     1.319865  7.617672  2.010151
  N    -1.156396  3.002485  0.494325
  N    -0.635368  6.534828  0.915450
  N    -1.658938  3.515627  4.286747
  N    -1.406238  7.309147  4.690249
  S    -2.529329  3.038143  2.931748
  S    -2.134125  6.603369  3.349104
  S     0.417094  3.357390  0.009101
  S     0.954398  7.097452  0.527381
  S    -0.091293  3.901907  4.051458
  S     0.087999  7.946681  4.468227
