16  
    
  C     2.035540  4.706703  2.981909
  C     2.351871  8.602914  3.113819
  C     0.846249  4.168044  2.360734
  C     1.140890  8.119419  2.493758
  N     3.016189  5.015332  2.192761
  N     3.392359  8.594303  2.266517
  N     0.934202  4.105228  1.048407
  N     1.212294  7.812055  1.186784
  N     0.333031  4.351182  4.818494
  N     0.456172  8.380807  4.894766
  S    -0.502125  3.997857  3.463623
  S    -0.193796  7.754087  3.512524
  S     2.531440  4.548141  0.665842
  S     2.757960  8.221938  0.779960
  S     1.837950  4.961835  4.653525
  S     2.029730  8.857724  4.883072
