16  
    
  C    -2.429771  2.256259  2.122290
  C    -2.626116  5.674757  2.141061
  C    -3.673239  2.065808  1.502507
  C    -3.819441  5.180472  1.485830
  N    -1.390238  2.322187  1.268120
  N    -1.627771  5.812854  1.234076
  N    -3.641365  1.852962  0.189552
  N    -3.766736  5.061599  0.145518
  N    -4.170181  1.983114  4.040622
  N    -4.362233  5.293846  3.980602
  S    -4.990636  1.865797  2.628736
  S    -5.146784  4.979186  2.538522
  S    -1.999107  1.980735 -0.222609
  S    -2.272880  5.652451 -0.288944
  S    -2.573564  2.338202  3.907847
  S    -2.782793  5.716360  3.847564
