16  
    
  C    -3.363981  1.897385  2.013452
  C    -3.091852  5.442311  2.142218
  C    -4.609727  1.442161  1.487870
  C    -4.231335  4.873255  1.423070
  N    -2.424825  2.085314  1.076126
  N    -2.117906  5.714920  1.287867
  N    -4.618548  1.343476  0.162021
  N    -4.065628  4.675196  0.095267
  N    -4.898493  1.346011  4.038542
  N    -4.947595  5.249183  3.854658
  S    -5.773387  1.056878  2.661188
  S    -5.560565  4.513928  2.441514
  S    -3.086090  1.751494 -0.365346
  S    -2.517411  5.118180 -0.230078
  S    -3.311874  1.884025  3.766770
  S    -3.338511  5.821360  3.826780
