16  
    
  C    -1.290913  3.353005  2.052209
  C    -0.991136  6.814055  2.610677
  C    -2.472236  2.661132  1.510756
  C    -2.279759  6.579782  1.956928
  N    -0.322253  3.647573  1.210318
  N    -0.040071  7.139033  1.761691
  N    -2.404891  2.664917  0.206215
  N    -2.252068  6.718838  0.654681
  N    -2.899577  2.868081  4.035427
  N    -2.746540  6.794051  4.449683
  S    -3.624441  2.209856  2.686936
  S    -3.599216  6.694004  3.069845
  S    -0.934798  3.257848 -0.298685
  S    -0.644095  7.030965  0.231381
  S    -1.449535  3.656549  3.771156
  S    -1.131011  6.973943  4.300693
