16  
    
  C     1.653664  4.607169  3.389111
  C     1.332338  8.141590  3.063995
  C     0.420657  4.094593  2.780208
  C     0.302281  7.397862  2.397898
  N     2.711687  4.484667  2.554444
  N     2.282704  8.476814  2.220918
  N     0.462726  3.841589  1.454263
  N     0.510360  7.193419  1.116943
  N     0.008936  4.592840  5.381174
  N    -0.373116  7.587422  4.891184
  S    -0.830868  4.294163  3.957850
  S    -1.013816  7.083260  3.466788
  S     2.054906  4.000977  1.108503
  S     1.909525  7.953249  0.660348
  S     1.646784  4.859108  5.095305
  S     1.184622  8.200906  4.772961
