16  
    
  C    -5.420686  1.131577  1.644760
  C    -5.173492  4.763602  1.418575
  C    -6.693817  0.999739  0.984793
  C    -6.437697  4.461996  0.797603
  N    -4.387592  1.122880  0.808751
  N    -4.178657  4.738979  0.566672
  N    -6.543271  0.781029 -0.296106
  N    -6.318566  4.084886 -0.446126
  N    -7.216487  1.033406  3.593091
  N    -6.933659  5.154922  3.202228
  S    -7.982126  0.730892  2.112156
  S    -7.750228  4.454508  1.880771
  S    -4.983625  0.731728 -0.660871
  S    -4.711210  4.246309 -0.914638
  S    -5.590049  1.258974  3.379277
  S    -5.281950  5.091394  3.123804
