16  
    
  C     3.071321  5.172296  3.429516
  C     3.430806  9.067721  3.534869
  C     2.019586  4.382062  2.745997
  C     2.134634  8.685898  2.987485
  N     4.043780  5.489723  2.574407
  N     4.391050  9.002235  2.619425
  N     2.134228  4.339193  1.422631
  N     2.046106  8.416588  1.736848
  N     1.147769  5.035389  5.079782
  N     1.609253  8.816376  5.448994
  S     0.598033  4.151080  3.779558
  S     0.746769  8.601966  4.068757
  S     3.691269  4.984014  1.074931
  S     3.590286  8.742533  1.104428
  S     2.779589  5.404869  5.141171
  S     3.190738  9.289542  5.308848
