16  
    
  C    -4.330209  1.585066  1.947308
  C    -4.617565  5.113667  1.671103
  C    -5.494891  0.989576  1.380488
  C    -5.791922  4.602203  1.096365
  N    -3.276372  1.785826  1.117941
  N    -3.613009  5.370227  0.809606
  N    -5.373351  0.782585  0.087959
  N    -5.744049  4.306158 -0.222849
  N    -6.105579  1.280028  3.887014
  N    -6.335649  4.657200  3.708961
  S    -6.826756  0.769072  2.527100
  S    -7.102225  4.364194  2.221231
  S    -3.844901  1.240830 -0.346433
  S    -4.236963  4.822830 -0.677548
  S    -4.577267  1.848360  3.675558
  S    -4.841648  5.376114  3.470952
