16  
    
  C     0.099744  3.486304  2.326450
  C     0.297731  7.614563  2.874783
  C    -1.159057  3.256672  1.681870
  C    -0.786536  6.837203  2.314597
  N     1.090349  3.574013  1.492773
  N     1.279573  7.783520  1.978263
  N    -1.171832  3.245843  0.367762
  N    -0.651671  6.474096  1.064695
  N    -1.574666  3.453548  4.240558
  N    -1.478248  7.203968  4.710615
  S    -2.435832  3.033504  2.874125
  S    -2.146990  6.599741  3.276664
  S     0.452061  3.508709 -0.055102
  S     0.893362  6.908463  0.589776
  S     0.031686  3.701608  4.085754
  S    -0.000205  7.926546  4.532274
