16  
    
  C    -0.392159  3.409693  2.700402
  C    -0.323099  7.002446  2.470580
  C    -1.440086  2.586948  2.065617
  C    -1.464415  6.423557  1.864924
  N     0.708925  3.560364  1.967932
  N     0.761088  7.191173  1.739870
  N    -1.164750  2.220964  0.821164
  N    -1.253743  5.988220  0.621166
  N    -2.257033  3.064433  4.440662
  N    -2.171606  7.025023  4.365552
  S    -2.797768  2.306738  3.070995
  S    -2.837296  6.250420  3.049319
  S     0.310555  2.854632  0.462875
  S     0.287968  6.497661  0.218354
  S    -0.742502  3.710015  4.437326
  S    -0.587046  7.476773  4.158295
