16  
    
  C    -5.991259  0.782054  1.384792
  C    -5.971352  4.241138  1.556016
  C    -7.199258  0.681482  0.638594
  C    -7.240910  3.825024  0.887119
  N    -4.957919  0.940222  0.582396
  N    -5.093418  4.741774  0.703754
  N    -7.061226  0.586286 -0.681888
  N    -7.152943  3.862953 -0.442352
  N    -7.819352  0.279710  3.168876
  N    -7.643258  3.848845  3.463912
  S    -8.591397  0.327113  1.701171
  S    -8.375740  3.391878  2.061405
  S    -5.415690  0.810947 -1.031436
  S    -5.651473  4.513934 -0.815573
  S    -6.197875  0.645860  3.095168
  S    -6.014113  4.186071  3.250336
