16  
    
  C    -5.659032  0.821036  1.560606
  C    -5.717693  4.656130  1.328561
  C    -6.828059  0.445329  0.852204
  C    -6.977316  4.229694  0.711220
  N    -4.600225  0.917094  0.772950
  N    -4.793505  4.914731  0.435239
  N    -6.675084  0.290598 -0.441183
  N    -6.892016  4.089239 -0.580988
  N    -7.465183  0.480348  3.347892
  N    -7.458148  4.462003  3.219235
  S    -8.213316  0.285215  1.890270
  S    -8.255005  4.019136  1.831708
  S    -5.066692  0.570893 -0.796713
  S    -5.359426  4.557562 -1.074739
  S    -5.941316  1.097051  3.268362
  S    -5.871124  4.858820  2.978321
