16  
    
  C    -2.788345  2.673225  2.301435
  C    -2.720516  5.966198  1.979407
  C    -3.851759  1.942382  1.731958
  C    -3.877253  5.519235  1.170425
  N    -1.794910  3.026066  1.482622
  N    -1.650682  6.205018  1.266836
  N    -3.729419  1.829823  0.413598
  N    -3.646351  5.497021 -0.102858
  N    -4.382880  2.092326  4.266229
  N    -4.517207  5.405485  3.789688
  S    -5.013883  1.351900  2.876645
  S    -5.183548  5.160285  2.309391
  S    -2.232121  2.465420  0.026368
  S    -2.129698  6.153399 -0.362821
  S    -2.855662  2.752837  4.081973
  S    -3.002745  6.158049  3.668313
