16  
    
  C     0.089627  3.549695  2.730809
  C     0.284859  7.341834  2.677014
  C    -0.968184  2.923184  2.047366
  C    -1.007617  7.305201  2.080704
  N     1.122327  3.931710  1.982466
  N     1.293707  7.530839  1.854206
  N    -0.800610  2.832793  0.746315
  N    -0.938548  7.358580  0.781310
  N    -1.625645  3.078820  4.572353
  N    -1.416645  7.353010  4.563554
  S    -2.327911  2.620855  3.095097
  S    -2.327460  7.241979  3.138254
  S     0.787280  3.432513  0.443372
  S     0.720412  7.558055  0.341422
  S    -0.135354  3.799598  4.444692
  S     0.236632  7.543149  4.360740
