16  
    
  C    -3.361212  1.870693  2.019419
  C    -3.086188  5.439117  2.134670
  C    -4.607385  1.457312  1.477255
  C    -4.229001  4.878539  1.431027
  N    -2.432384  2.069283  1.070257
  N    -2.118009  5.712255  1.283050
  N    -4.616570  1.330847  0.157133
  N    -4.079684  4.685389  0.102603
  N    -4.902218  1.341945  4.053378
  N    -4.953876  5.240256  3.853031
  S    -5.782049  1.055564  2.667354
  S    -5.564728  4.523230  2.438772
  S    -3.091277  1.749906 -0.379249
  S    -2.511653  5.117017 -0.222203
  S    -3.308589  1.887495  3.780889
  S    -3.334925  5.818356  3.814775
