16  
    
  C     3.461639  5.396246  3.573282
  C     3.458236  8.968987  3.489117
  C     2.259587  4.925250  2.942811
  C     2.351798  8.365170  2.811280
  N     4.565827  5.455218  2.804703
  N     4.479755  9.502535  2.741350
  N     2.363716  4.889063  1.641851
  N     2.556715  8.434826  1.474370
  N     1.796210  4.931371  5.396753
  N     1.810211  8.686456  5.368598
  S     0.932038  4.717016  4.009735
  S     1.044746  8.099082  4.045727
  S     3.895365  5.318112  1.255611
  S     4.083397  9.104050  1.182834
  S     3.434359  5.405229  5.297769
  S     3.296123  9.353861  5.199500
