16  
    
  C    -1.738284  2.381264  1.973801
  C    -1.819293  6.503255  2.149403
  C    -3.025924  2.066510  1.329749
  C    -2.850296  5.658189  1.638852
  N    -0.776881  2.347411  1.091526
  N    -0.900150  6.827686  1.256097
  N    -3.025055  1.986932 -0.006485
  N    -2.678516  5.200441  0.374036
  N    -3.384019  2.190577  3.893734
  N    -3.472204  6.011996  4.015272
  S    -4.248699  1.847157  2.541972
  S    -4.219393  5.499063  2.633935
  S    -1.439230  2.239833 -0.413481
  S    -1.229085  5.883647 -0.052319
  S    -1.793517  2.573189  3.668057
  S    -2.172730  7.003739  3.726460
