16  
    
  C    -1.844042  2.354818  2.643832
  C    -1.732890  5.858890  2.334453
  C    -3.084672  1.981380  1.932962
  C    -2.997466  5.628763  1.592653
  N    -0.895332  2.791908  1.823906
  N    -0.689754  6.046072  1.568229
  N    -2.903467  1.823583  0.640810
  N    -2.889131  5.768053  0.284482
  N    -3.737758  2.082042  4.395366
  N    -3.501452  5.636453  4.101715
  S    -4.507558  1.882259  2.926973
  S    -4.316293  5.386464  2.641663
  S    -1.390589  2.386508  0.303921
  S    -1.230181  5.861839  0.007309
  S    -2.085939  2.406091  4.364845
  S    -1.826827  5.806402  4.097723
