16  
    
  C     0.472325  3.806872  2.876963
  C     0.857523  7.556894  2.625262
  C    -0.484946  3.053057  2.137974
  C    -0.303789  7.143126  1.978395
  N     1.612527  4.091858  2.191095
  N     1.785316  8.058604  1.873848
  N    -0.227444  2.895316  0.854005
  N    -0.227673  7.221778  0.655032
  N    -1.457331  3.168016  4.499917
  N    -0.689284  6.845683  4.493795
  S    -1.998087  2.622108  3.041019
  S    -1.526023  6.465509  3.101176
  S     1.209813  3.649234  0.592209
  S     1.256350  7.829367  0.289172
  S     0.120629  3.736573  4.581957
  S     0.811310  7.505936  4.320397
