16  
    
  C    -1.446592  3.334992  2.014307
  C    -1.005617  6.979112  2.466917
  C    -2.582777  2.612595  1.403761
  C    -2.289293  6.772977  1.874371
  N    -0.538362  3.836153  1.139152
  N     0.015465  6.981460  1.618449
  N    -2.364204  2.315006  0.101547
  N    -2.217319  6.844125  0.528780
  N    -3.113554  2.761743  3.888166
  N    -2.684654  6.703952  4.471767
  S    -3.819405  2.178129  2.507749
  S    -3.564239  6.621671  3.090638
  S    -0.908181  3.071493 -0.314012
  S    -0.633065  6.820057  0.083433
  S    -1.636338  3.480530  3.755113
  S    -1.091675  7.074439  4.201549
