16  
    
  C    -4.134173  1.376726  1.794772
  C    -4.125023  5.248748  1.969107
  C    -5.419652  1.188704  1.068247
  C    -5.419331  4.998163  1.343027
  N    -3.028058  1.260769  1.041165
  N    -3.095183  5.230163  1.139116
  N    -5.216993  1.162278 -0.252120
  N    -5.389083  4.912541  0.006464
  N    -6.074255  1.532143  3.492885
  N    -5.897045  5.170237  3.860116
  S    -6.841692  1.270569  2.016942
  S    -6.767688  4.942386  2.415625
  S    -3.632192  1.155187 -0.543919
  S    -3.771063  4.879832 -0.329407
  S    -4.354901  1.581178  3.458613
  S    -4.201776  5.298471  3.660076
