16  
    
  C     2.845048  5.294918  3.331828
  C     2.861507  8.957146  3.350670
  C     1.759780  4.546312  2.735920
  C     1.712687  8.363516  2.711777
  N     3.878357  5.553149  2.518119
  N     3.895854  9.201899  2.566208
  N     1.859884  4.525320  1.391009
  N     1.851478  8.357265  1.409672
  N     1.184695  4.832807  5.282230
  N     1.154345  8.272888  5.250273
  S     0.461607  4.283864  3.933492
  S     0.525712  7.762386  3.793206
  S     3.339812  5.115739  0.986735
  S     3.355816  8.917281  1.009134
  S     2.753278  5.445847  5.033453
  S     2.637182  9.094513  5.101222
