16  
    
  C    -2.622851  2.445424  2.300470
  C    -2.733310  6.558748  1.961313
  C    -3.844682  1.861764  1.698704
  C    -3.783967  5.855024  1.246733
  N    -1.739484  2.913904  1.419806
  N    -1.632824  6.701612  1.215646
  N    -3.703042  1.660947  0.378819
  N    -3.484566  5.483972 -0.057662
  N    -4.386581  2.244571  4.126908
  N    -4.517375  5.845237  3.729059
  S    -5.120424  1.657608  2.784860
  S    -5.108296  5.364613  2.240470
  S    -2.290342  2.373430 -0.103765
  S    -1.990296  6.167018 -0.314424
  S    -2.850421  2.889482  3.978095
  S    -2.999634  6.413159  3.713577
