16  
    
  C     0.872336  3.967100  2.571143
  C     1.547822  7.961712  3.306641
  C    -0.310900  3.425473  1.815844
  C     0.234500  7.857814  2.687145
  N     1.918971  4.071932  1.787860
  N     2.534731  7.893079  2.417206
  N    -0.212557  3.424502  0.492392
  N     0.299856  7.807103  1.364168
  N    -0.904976  3.613849  4.360839
  N    -0.234753  7.828406  5.216118
  S    -1.629849  3.171904  2.917714
  S    -1.064879  7.808820  3.758361
  S     1.447456  3.709416  0.245692
  S     1.917484  7.887069  0.850971
  S     0.756028  4.052491  4.292813
  S     1.443161  8.028334  5.066528
