16  
    
  C    -1.887055  2.218486  2.008073
  C    -1.957109  6.048691  2.145405
  C    -3.112786  1.851643  1.362214
  C    -3.247763  5.797314  1.495066
  N    -0.816928  2.345915  1.226422
  N    -0.930443  6.031693  1.244913
  N    -3.022480  1.919522  0.052633
  N    -3.189360  5.468913  0.222059
  N    -3.788551  2.366005  3.815029
  N    -3.651500  5.658697  4.084079
  S    -4.479227  1.746792  2.412512
  S    -4.476824  5.620265  2.633020
  S    -1.434046  2.120244 -0.324977
  S    -1.580652  5.710985 -0.215600
  S    -2.124844  2.427554  3.760472
  S    -2.065529  6.061047  3.906003
