16  
    
  C     1.745455  4.562524  3.327253
  C     1.389114  8.180859  3.012192
  C     0.535765  4.064638  2.794437
  C     0.338595  7.416138  2.390263
  N     2.758616  4.598496  2.469184
  N     2.350611  8.606122  2.167493
  N     0.596432  3.807336  1.472403
  N     0.568453  7.077336  1.108634
  N     0.024404  4.565585  5.329375
  N    -0.372286  7.553716  4.877692
  S    -0.832337  4.299156  3.929147
  S    -0.991820  7.011009  3.437312
  S     2.168622  4.004858  1.088979
  S     1.892653  7.936994  0.679590
  S     1.678816  4.855107  5.075055
  S     1.197317  8.206641  4.791816
