16  
    
  C    -5.553268  0.766724  1.520037
  C    -5.485338  4.674428  1.279094
  C    -6.805182  0.467902  0.865720
  C    -6.726410  4.221595  0.687152
  N    -4.481123  0.898235  0.737974
  N    -4.592243  4.967618  0.330758
  N    -6.667834  0.240966 -0.448977
  N    -6.728415  4.078683 -0.656809
  N    -7.438398  0.668395  3.343427
  N    -7.094823  4.284709  3.225074
  S    -8.145282  0.272180  1.867639
  S    -7.982472  4.005291  1.843030
  S    -5.075042  0.594306 -0.825483
  S    -5.236328  4.645471 -1.186572
  S    -5.781764  1.081583  3.198664
  S    -5.608191  5.048016  3.009128
