16  
    
  C    -5.556140  0.810473  1.486760
  C    -5.495298  4.701252  1.246124
  C    -6.796751  0.456467  0.863180
  C    -6.693782  4.255102  0.675277
  N    -4.513742  0.904234  0.704094
  N    -4.609446  5.004633  0.345858
  N    -6.623299  0.259133 -0.404674
  N    -6.680249  4.101216 -0.608538
  N    -7.391596  0.746368  3.321992
  N    -6.997988  4.289778  3.209962
  S    -8.113252  0.254298  1.880362
  S    -7.911433  3.986490  1.843565
  S    -5.076746  0.599785 -0.818357
  S    -5.180368  4.648498 -1.165487
  S    -5.773476  1.050108  3.167098
  S    -5.531491  5.055251  2.985016
