16  
    
  C    -5.224432  1.254604  1.767975
  C    -5.078667  5.059687  1.395354
  C    -6.304692  0.551020  1.138456
  C    -6.220870  4.470962  0.713659
  N    -4.127133  1.364236  0.983702
  N    -3.987102  5.096790  0.634582
  N    -6.147278  0.242726 -0.155922
  N    -6.024669  4.191030 -0.570901
  N    -6.958649  0.979834  3.642063
  N    -6.881900  4.589537  3.196238
  S    -7.632483  0.367198  2.228189
  S    -7.565367  4.066154  1.763880
  S    -4.599134  0.676389 -0.468098
  S    -4.428845  4.445202 -0.841113
  S    -5.369092  1.368922  3.534803
  S    -5.398870  5.257306  3.102907
