16  
    
  C     2.930208  5.119532  3.197082
  C     2.803768  9.114965  3.463170
  C     1.718954  4.558380  2.674795
  C     1.731760  8.368172  2.811497
  N     3.815397  5.507869  2.244978
  N     3.810236  9.607596  2.802094
  N     1.807287  4.214720  1.381588
  N     2.053549  8.191285  1.531974
  N     1.293537  4.789369  5.260626
  N     1.157774  8.631219  5.344546
  S     0.551719  4.162433  3.880865
  S     0.444981  7.996195  4.009262
  S     3.292193  4.842394  0.822674
  S     3.519911  9.104456  1.253271
  S     2.748574  5.476682  4.917902
  S     2.669351  9.206117  5.188338
