16  
    
  C     0.328726  3.522588  2.912139
  C     0.413756  7.662573  2.787548
  C    -0.912113  3.214659  2.186742
  C    -0.938155  7.481526  2.243865
  N     1.338734  3.956361  2.145686
  N     1.398362  7.678683  1.875304
  N    -0.767421  3.367865  0.873243
  N    -0.983661  7.475131  0.911706
  N    -1.425771  3.116090  4.729109
  N    -1.216380  7.532771  4.769091
  S    -2.224979  2.833097  3.255598
  S    -2.192294  7.446057  3.441229
  S     0.827384  3.722620  0.580552
  S     0.514372  7.549835  0.454303
  S     0.157370  3.434398  4.619326
  S     0.416415  7.560895  4.553870
