16  
    
  C    -0.369935  3.371140  2.583425
  C    -0.331071  6.914251  2.361043
  C    -1.617317  3.029354  2.003387
  C    -1.567215  6.559703  1.813609
  N     0.599577  3.471470  1.697789
  N     0.570335  7.176017  1.398926
  N    -1.658405  3.045493  0.692875
  N    -1.657503  6.391455  0.508524
  N    -1.959878  3.202763  4.520425
  N    -1.954046  6.687823  4.346421
  S    -2.944573  2.942911  3.227444
  S    -2.810361  6.256368  2.955349
  S    -0.050509  3.187447  0.211677
  S    -0.103740  6.752816 -0.046661
  S    -0.406154  3.540348  4.283433
  S    -0.367533  7.128538  4.117215
