16  
    
  C     3.593286  5.298444  3.556507
  C     3.468998  9.138886  3.544990
  C     2.360322  4.933536  2.905447
  C     2.293900  8.593250  2.910217
  N     4.614454  5.632248  2.774318
  N     4.487291  9.406033  2.753594
  N     2.469803  5.016683  1.560990
  N     2.529087  8.368354  1.622464
  N     1.775690  5.183020  5.484755
  N     1.635609  8.609504  5.355149
  S     1.034657  4.891441  4.071785
  S     0.980327  8.132072  3.854036
  S     4.071079  5.370813  1.207616
  S     3.910934  9.003519  1.264223
  S     3.387510  5.427914  5.313453
  S     3.182356  9.228595  5.318862
