16  
    
  C    -0.302639  3.288926  2.651883
  C    -0.279093  7.105414  2.455884
  C    -1.463403  2.620572  2.049326
  C    -1.524552  6.756370  1.664627
  N     0.736708  3.475474  1.854613
  N     0.841494  7.162204  1.753077
  N    -1.346163  2.416166  0.755908
  N    -1.186687  6.460854  0.407777
  N    -2.172518  3.155541  4.430368
  N    -2.165502  6.826434  4.172788
  S    -2.764857  2.357864  3.130530
  S    -2.880519  6.552914  2.677711
  S     0.223274  2.756256  0.383321
  S     0.392147  6.745372  0.201657
  S    -0.678257  3.767669  4.347003
  S    -0.538023  7.309441  4.130855
