16  
    
  C    -1.581001  3.294190  1.971226
  C    -1.054404  7.023851  2.434564
  C    -2.559775  2.386931  1.387376
  C    -2.327509  6.817504  1.845908
  N    -0.536834  3.581337  1.186908
  N    -0.059903  7.052061  1.547574
  N    -2.339038  2.155544  0.097412
  N    -2.292142  6.548534  0.545416
  N    -3.224326  2.690646  3.867763
  N    -2.591967  6.603851  4.287172
  S    -3.883395  2.052209  2.441039
  S    -3.571319  6.672308  2.977212
  S    -0.956450  3.002230 -0.322799
  S    -0.693866  6.749267  0.081854
  S    -1.724023  3.421564  3.685150
  S    -1.004583  7.114942  4.148780
