16  
    
  C    -3.605774  1.832088  1.798327
  C    -3.967991  5.339038  1.749245
  C    -4.883549  1.419673  1.215265
  C    -5.068582  4.774456  1.046703
  N    -2.666986  2.254861  0.940261
  N    -2.915481  5.618619  0.992782
  N    -4.756306  1.360909 -0.109675
  N    -4.950581  4.667712 -0.278978
  N    -5.282620  1.277084  3.752877
  N    -5.882728  5.118423  3.467664
  S    -6.182711  1.173957  2.325582
  S    -6.403621  4.351939  2.107536
  S    -3.309666  1.935032 -0.567617
  S    -3.424834  5.238316 -0.617645
  S    -3.741354  2.019909  3.543201
  S    -4.203915  5.432969  3.503948
