16  
    
  C    -4.708146  1.012773  1.430067
  C    -4.642360  4.635130  1.959588
  C    -5.944323  0.725485  0.733269
  C    -5.864796  4.271499  1.310812
  N    -3.638231  1.106454  0.626309
  N    -3.608792  4.776522  1.119169
  N    -5.765978  0.658005 -0.604845
  N    -5.751108  4.015236  0.019162
  N    -6.628315  0.893359  3.269026
  N    -6.566445  4.568806  3.772809
  S    -7.315268  0.416908  1.834614
  S    -7.260395  4.096132  2.344400
  S    -4.213871  0.925744 -0.924211
  S    -4.223807  4.482760 -0.408700
  S    -4.912969  1.163817  3.186554
  S    -4.890848  4.906483  3.710989
