16  
    
  C     0.990908  4.198828  2.571065
  C     1.317461  7.965979  3.153883
  C    -0.012701  3.464970  1.933460
  C     0.091144  7.590386  2.585950
  N     2.091335  4.318636  1.858954
  N     2.350794  8.061997  2.303738
  N     0.272035  3.195468  0.675921
  N     0.105960  7.385526  1.258659
  N    -0.971040  3.963559  4.277860
  N    -0.498023  7.958862  5.073602
  S    -1.511734  3.206707  2.866500
  S    -1.299767  7.676896  3.618307
  S     1.758165  3.756642  0.369857
  S     1.699160  7.687949  0.860356
  S     0.603738  4.410288  4.242538
  S     1.158010  8.136546  4.912070
