16  
    
  C     1.920920  5.171509  3.086010
  C     2.168609  8.593324  3.181694
  C     0.887509  4.357347  2.431127
  C     1.026161  8.039329  2.468910
  N     2.980868  5.432334  2.296798
  N     3.215116  8.866095  2.438559
  N     1.088516  4.182750  1.142642
  N     1.294018  7.849172  1.189170
  N     0.076860  4.710803  4.791324
  N     0.485039  8.131457  5.040763
  S    -0.584049  4.125160  3.359454
  S    -0.281203  7.731811  3.616591
  S     2.580693  4.746563  0.834988
  S     2.774891  8.528891  0.839932
  S     1.628224  5.196489  4.768304
  S     2.122853  8.557389  4.874409
