16  
    
  C     0.686701  3.523043  2.711696
  C     0.659347  7.706474  2.729747
  C    -0.697216  3.416947  2.175482
  C    -0.525974  6.988012  2.145240
  N     1.642836  3.915076  1.835534
  N     1.562050  8.018140  1.809122
  N    -0.653584  3.337086  0.843626
  N    -0.481496  6.843688  0.835580
  N    -0.939640  3.272430  4.726099
  N    -1.053279  7.334624  4.647663
  S    -1.966331  3.108315  3.358302
  S    -1.786353  6.626539  3.279532
  S     0.900583  3.688184  0.329377
  S     0.924114  7.438870  0.339329
  S     0.628798  3.500347  4.408699
  S     0.535213  7.873639  4.421579
