16  
    
  C     2.565205  5.041073  3.591841
  C     2.199004  8.828414  3.416720
  C     1.449342  4.258555  3.086689
  C     1.233552  7.950474  2.817384
  N     3.504147  5.259013  2.710559
  N     3.244813  9.071473  2.645664
  N     1.468041  4.054084  1.778604
  N     1.544400  7.497043  1.582015
  N     0.928281  4.831407  5.536027
  N     0.526899  8.291685  5.210856
  S     0.142696  4.230917  4.247383
  S    -0.089697  7.589719  3.889866
  S     2.962717  4.633224  1.244478
  S     2.977727  8.307636  1.153824
  S     2.493983  5.340829  5.270446
  S     1.960184  9.122740  5.076640
