16  
    
  C    -4.449104  1.295381  1.879977
  C    -4.653129  4.809068  1.644415
  C    -5.629114  0.771892  1.183200
  C    -5.781991  4.378740  0.858148
  N    -3.493671  1.629296  1.038228
  N    -3.543353  5.132250  0.935526
  N    -5.542724  0.761894 -0.174797
  N    -5.632021  4.504551 -0.465059
  N    -6.115726  0.711802  3.810729
  N    -6.533649  3.997189  3.268196
  S    -6.860644  0.328285  2.329851
  S    -7.149275  3.772875  1.761590
  S    -4.057391  1.336878 -0.502870
  S    -4.088204  5.025608 -0.669168
  S    -4.513705  1.134029  3.699907
  S    -5.011749  4.509236  3.332620
