16  
    
  C    -1.360915  3.392970  2.044463
  C    -0.951036  6.848569  2.565996
  C    -2.526777  2.765302  1.428192
  C    -2.278485  6.709587  1.904448
  N    -0.403444  3.701116  1.207546
  N     0.067878  6.930606  1.704604
  N    -2.372008  2.517599  0.157254
  N    -2.259288  6.739413  0.583847
  N    -2.982737  2.825537  3.975334
  N    -2.755610  6.858186  4.467554
  S    -3.699138  2.202868  2.604216
  S    -3.572079  6.627489  2.994055
  S    -0.932747  3.204133 -0.290066
  S    -0.710665  7.017928  0.213671
  S    -1.525216  3.599178  3.752669
  S    -1.065631  7.020804  4.327898
