16  
    
  C    -0.317065  3.348262  2.731715
  C    -0.471553  6.940753  2.414662
  C    -1.618791  3.216469  2.065945
  C    -1.655743  6.418176  1.875277
  N     0.654795  3.415571  1.825211
  N     0.534716  7.126677  1.589601
  N    -1.606719  2.972340  0.738622
  N    -1.593609  6.251618  0.551605
  N    -2.089121  3.240396  4.654768
  N    -2.178148  6.726644  4.374693
  S    -2.876681  2.885852  3.210380
  S    -2.977058  6.155260  3.024729
  S    -0.016965  3.260207  0.303237
  S    -0.070043  6.757937  0.102352
  S    -0.479132  3.710282  4.429452
  S    -0.592585  7.104176  4.166490
