16  
    
  C     2.963142  5.159261  3.573165
  C     3.028352  8.817573  3.459864
  C     1.738548  4.915619  2.854740
  C     1.878312  8.245702  2.779914
  N     3.972231  5.543549  2.795279
  N     4.016448  9.163289  2.589182
  N     1.885669  4.820778  1.528204
  N     2.017157  7.985062  1.465907
  N     1.095991  4.889376  5.366090
  N     1.033237  8.441761  5.145887
  S     0.348425  4.597198  3.891214
  S     0.413308  7.988526  3.640824
  S     3.497276  5.269373  1.247930
  S     3.474476  8.665862  1.083850
  S     2.675081  5.350187  5.265706
  S     2.619729  8.841614  5.225407
