16  
    
  C    -5.522794  0.960217  1.409445
  C    -5.245654  5.032358  1.228649
  C    -6.697016  0.402085  0.783290
  C    -6.377214  4.373518  0.695121
  N    -4.515730  1.138514  0.544979
  N    -4.361769  5.340695  0.309388
  N    -6.574928  0.236198 -0.516119
  N    -6.336179  4.087939 -0.602162
  N    -7.289799  0.721639  3.268520
  N    -6.695637  4.379112  3.294206
  S    -8.014367  0.177411  1.875601
  S    -7.513715  3.878250  1.962347
  S    -5.062709  0.710534 -0.929004
  S    -4.872970  4.724636 -1.165835
  S    -5.692483  1.067672  3.143902
  S    -5.221393  5.107407  3.043931
