16  
    
  C     0.506546  4.021026  2.913511
  C     0.699960  7.504014  2.861046
  C    -0.719635  3.375731  2.415255
  C    -0.504468  7.115936  2.064624
  N     1.558421  3.856889  2.080305
  N     1.817148  7.648176  2.127541
  N    -0.619735  3.017438  1.100495
  N    -0.231130  6.947140  0.777287
  N    -1.170503  3.818777  4.892100
  N    -1.313865  7.184855  4.517962
  S    -1.934216  3.327037  3.573468
  S    -1.907880  6.881529  3.048012
  S     0.888795  3.361129  0.645072
  S     1.326680  7.205048  0.563312
  S     0.484013  4.165897  4.698899
  S     0.258799  7.744426  4.560732
