16  
    
  C     1.382376  4.595397  3.335123
  C     1.455174  8.036866  3.110820
  C     0.107508  4.152473  2.943863
  C     0.163400  7.840875  2.430299
  N     2.285837  4.677346  2.386040
  N     2.517517  7.951478  2.318975
  N    -0.007540  3.915604  1.650513
  N     0.266172  7.723849  1.105095
  N    -0.098293  4.521568  5.460873
  N    -0.393509  7.998110  4.917505
  S    -1.141408  4.123867  4.166767
  S    -1.237741  7.833334  3.483195
  S     1.505943  4.306917  0.932609
  S     1.944458  7.675819  0.829029
  S     1.530291  4.681045  5.039480
  S     1.266412  8.120065  4.820971
