16  
    
  C    -0.692193  3.066036  2.743525
  C    -1.359065  6.567054  2.593541
  C    -1.919861  2.676760  2.110982
  C    -2.449631  5.938233  1.848844
  N     0.296782  3.323662  1.859363
  N    -0.305781  6.874920  1.823957
  N    -1.744825  2.322223  0.824350
  N    -2.247643  5.943998  0.533592
  N    -2.488337  3.074951  4.633559
  N    -3.183522  6.082847  4.333111
  S    -3.325670  2.772157  3.190637
  S    -3.758513  5.600326  2.884226
  S    -0.162235  2.626839  0.462814
  S    -0.678833  6.574752  0.230444
  S    -0.820649  3.381841  4.400949
  S    -1.632656  6.619674  4.319368
