16  
    
  C    -3.146284  1.716865  2.036379
  C    -3.151705  5.643424  2.096371
  C    -4.370190  1.403432  1.333435
  C    -4.317945  5.045811  1.476633
  N    -2.133451  1.970229  1.226561
  N    -2.153553  5.885943  1.294157
  N    -4.261682  1.342181  0.034524
  N    -4.126648  4.763688  0.186163
  N    -5.091134  1.596237  3.766839
  N    -4.799797  5.037483  4.064471
  S    -5.777863  1.252710  2.257965
  S    -5.564838  4.620533  2.600500
  S    -2.683805  1.721605 -0.311326
  S    -2.713683  5.416370 -0.272995
  S    -3.430578  1.954609  3.685345
  S    -3.379961  5.847064  3.826228
