16  
    
  C     2.154944  4.448743  3.031601
  C     2.064002  8.134460  3.170451
  C     0.966434  3.953865  2.391642
  C     0.871197  7.575760  2.482160
  N     3.144812  4.698798  2.212558
  N     3.149919  8.192826  2.398971
  N     1.099848  3.604506  1.126496
  N     1.069764  7.128048  1.253680
  N     0.224108  4.476703  4.844417
  N     0.042296  8.246583  4.833746
  S    -0.438772  3.964146  3.392202
  S    -0.568763  7.510658  3.430486
  S     2.725251  4.008530  0.729339
  S     2.672724  7.550398  0.924625
  S     1.899236  4.781394  4.684963
  S     1.711866  8.432242  4.870252
