16  
    
  C     0.563046  3.625018  2.965194
  C     0.477421  7.607599  2.922414
  C    -0.801662  3.549678  2.418161
  C    -0.740329  7.159796  2.242617
  N     1.460431  3.980253  2.050512
  N     1.536302  7.545931  2.118989
  N    -0.900666  3.742040  1.129108
  N    -0.617305  6.931273  0.938911
  N    -1.147667  3.331741  4.934568
  N    -1.310411  7.389637  4.688236
  S    -2.091200  3.331444  3.568517
  S    -2.106716  7.065665  3.277572
  S     0.720105  3.869453  0.555301
  S     1.049040  7.201027  0.612260
  S     0.524707  3.407715  4.655459
  S     0.263337  7.824741  4.569028
