16  
    
  C    -0.010790  3.232699  2.569644
  C     0.005071  7.123648  2.616551
  C    -1.090146  2.648173  1.884033
  C    -1.182731  6.608977  1.940912
  N     0.903530  3.725068  1.775962
  N     0.999816  7.465041  1.781562
  N    -0.936711  2.489300  0.562279
  N    -1.140410  6.625838  0.583072
  N    -1.841860  2.933833  4.318953
  N    -1.794427  6.494080  4.515826
  S    -2.482017  2.293455  2.886148
  S    -2.564760  6.367789  3.016606
  S     0.538210  3.172807  0.235426
  S     0.360475  7.204025  0.228117
  S    -0.330052  3.528735  4.322055
  S    -0.230427  6.983282  4.386814
