16  
    
  C    -0.005368  3.586223  2.444625
  C     0.421400  7.471145  2.775051
  C    -1.246371  3.109033  1.893373
  C    -0.787455  6.902262  2.215679
  N     0.918764  3.955476  1.540463
  N     1.422248  7.564131  1.902199
  N    -1.110319  2.722024  0.599303
  N    -0.701172  6.722550  0.912168
  N    -1.709986  3.512205  4.368893
  N    -1.442538  7.327856  4.611593
  S    -2.527280  2.946869  2.985509
  S    -2.150385  6.705957  3.208593
  S     0.446785  3.174246  0.146793
  S     0.849113  7.211805  0.373699
  S    -0.183937  4.029925  4.139693
  S     0.111138  7.800095  4.505733
