16  
    
  C     2.036284  4.321349  3.082213
  C     1.979916  7.947471  3.141504
  C     0.788131  3.969371  2.481418
  C     0.821488  7.587248  2.405693
  N     3.024271  4.297553  2.212084
  N     3.082557  8.017249  2.413553
  N     0.749859  3.893371  1.178412
  N     1.042881  7.499277  1.106330
  N     0.304583  4.244450  4.957470
  N     0.167219  7.682729  4.899919
  S    -0.594481  3.968381  3.601749
  S    -0.585554  7.320267  3.476371
  S     2.330658  3.903484  0.710183
  S     2.614772  7.846216  0.848814
  S     1.820401  4.728172  4.740099
  S     1.766220  8.170357  4.801474
