16  
    
  C     3.129406  5.126008  3.369830
  C     3.021151  8.921577  3.849687
  C     1.902117  4.646534  2.698440
  C     1.754491  8.467540  3.335865
  N     4.214233  5.082657  2.582093
  N     3.971460  9.136154  2.930171
  N     2.026029  4.542733  1.378959
  N     1.743904  8.235993  1.992754
  N     1.158760  5.037422  5.040013
  N     1.373770  8.975009  5.835170
  S     0.459104  4.664071  3.586195
  S     0.464475  8.734905  4.474150
  S     3.631610  4.872405  1.024239
  S     3.329964  8.618532  1.491986
  S     2.813234  5.259317  5.123197
  S     3.009870  9.355003  5.585418
