16  
    
  C     3.225096  4.952888  3.467760
  C     3.517811  8.940486  3.791746
  C     1.948976  4.817826  2.821702
  C     2.266247  8.753972  3.082267
  N     4.280582  5.008206  2.655724
  N     4.561256  8.998659  2.994879
  N     2.055876  4.483364  1.534479
  N     2.302975  8.765254  1.770352
  N     1.356934  5.154164  5.291025
  N     1.447816  9.295596  5.503047
  S     0.588660  4.743990  3.844640
  S     0.875384  8.873624  3.976507
  S     3.673271  4.760364  1.120487
  S     3.951822  8.792401  1.408390
  S     3.013697  5.220565  5.211381
  S     3.193544  9.229251  5.547326
