16  
    
  C     0.585107  3.903913  2.949870
  C     0.649785  7.490940  2.787191
  C    -0.526776  3.187876  2.450185
  C    -0.481490  6.972374  2.136855
  N     1.581602  4.061963  2.079880
  N     1.736437  7.605998  2.046179
  N    -0.430566  2.872328  1.160226
  N    -0.283812  6.772135  0.834950
  N    -1.212119  4.005433  4.823677
  N    -1.099341  7.181635  4.580250
  S    -1.942239  3.302887  3.562058
  S    -1.878151  6.797163  3.206313
  S     1.076882  3.313834  0.714550
  S     1.244110  7.225857  0.483151
  S     0.463407  4.319797  4.634699
  S     0.438643  7.829006  4.513006
