16  
    
  C    -6.073548  0.755226  1.345711
  C    -5.989297  4.405360  1.747152
  C    -7.294821  0.314953  0.723961
  C    -7.233185  3.955684  1.053667
  N    -5.159947  1.185546  0.496868
  N    -5.011824  4.778373  0.915297
  N    -7.186116  0.265607 -0.603449
  N    -7.093395  3.893113 -0.266592
  N    -7.710908  0.235527  3.224213
  N    -7.768756  3.715029  3.558862
  S    -8.530442 -0.005963  1.817900
  S    -8.462734  3.353807  2.059963
  S    -5.723454  0.910410 -0.988955
  S    -5.609246  4.441946 -0.602317
  S    -6.102820  0.799476  3.096545
  S    -6.244944  4.355207  3.424127
