16  
    
  C     2.965212  5.098645  3.667279
  C     2.837818  8.921770  3.311299
  C     1.647400  4.953273  3.118996
  C     1.578768  8.446100  2.730127
  N     3.916563  4.837223  2.755679
  N     3.874665  8.832356  2.480704
  N     1.570240  4.869376  1.777619
  N     1.675307  7.951786  1.502831
  N     1.262466  5.554979  5.690732
  N     1.141755  8.786640  5.208006
  S     0.400372  5.336829  4.266900
  S     0.290618  8.527058  3.854385
  S     3.177743  4.731023  1.285111
  S     3.322642  8.132884  1.071736
  S     2.925115  5.397948  5.405318
  S     2.720526  9.020804  5.023588
