16  
    
  C    -0.322577  3.296027  2.777583
  C    -0.302461  7.076519  2.510747
  C    -1.481128  2.741048  2.086387
  C    -1.470635  6.318142  1.962461
  N     0.703601  3.484730  1.913207
  N     0.665968  7.166919  1.585389
  N    -1.233312  2.322771  0.845846
  N    -1.336594  6.019682  0.659034
  N    -2.263380  3.050107  4.491978
  N    -2.142439  7.002455  4.371075
  S    -2.816933  2.310793  3.099351
  S    -2.764451  6.135470  3.098087
  S     0.265148  2.896387  0.448206
  S     0.231850  6.402241  0.208380
  S    -0.734642  3.678307  4.374621
  S    -0.557795  7.500920  4.188503
