16  
    
  C    -1.577348  2.867008  2.025144
  C    -1.135425  6.836771  2.217458
  C    -2.609990  2.119618  1.334837
  C    -2.429240  6.514812  1.681583
  N    -0.542232  3.105945  1.281342
  N    -0.169882  6.846478  1.341466
  N    -2.373795  1.910586  0.055308
  N    -2.400443  6.194872  0.396952
  N    -3.304572  2.386715  3.826476
  N    -2.787677  7.010699  4.152806
  S    -3.868145  1.641228  2.440885
  S    -3.704779  6.368459  2.869082
  S    -0.864676  2.546282 -0.258013
  S    -0.866753  6.599282 -0.112617
  S    -1.886353  3.260219  3.697801
  S    -1.108234  7.130933  3.887333
