16  
    
  C    -1.841503  2.516298  2.516570
  C    -1.673667  5.781750  2.393155
  C    -3.083608  2.216786  1.814736
  C    -2.897331  5.520609  1.605279
  N    -0.812533  2.577429  1.692464
  N    -0.635442  6.061174  1.645470
  N    -3.019929  2.321889  0.497915
  N    -2.712115  5.594692  0.306073
  N    -3.644606  2.280224  4.319415
  N    -3.618881  5.667058  4.035888
  S    -4.473277  1.975723  2.895106
  S    -4.342295  5.312125  2.542969
  S    -1.398719  2.393538  0.133538
  S    -1.119778  5.896419  0.106716
  S    -1.991521  2.510210  4.189616
  S    -1.962347  5.963121  4.141453
