16  
    
  C    -1.852357  2.491706  2.406192
  C    -1.704151  5.913491  2.394361
  C    -3.102364  2.320809  1.788115
  C    -2.888932  5.563409  1.688668
  N    -0.761017  2.607273  1.637958
  N    -0.590086  6.129448  1.705905
  N    -2.993152  2.319059  0.445323
  N    -2.697973  5.416628  0.372091
  N    -3.634585  2.345555  4.297640
  N    -3.633515  5.751301  4.098052
  S    -4.382714  2.009283  2.866781
  S    -4.339288  5.315469  2.598177
  S    -1.371813  2.371777  0.125148
  S    -1.125731  5.945867  0.113556
  S    -1.993273  2.531848  4.191308
  S    -1.993998  5.962528  4.066453
