16  
    
  C    -2.162277  2.427602  1.939021
  C    -2.191658  5.791082  2.238437
  C    -3.473307  2.058777  1.376277
  C    -3.385195  5.463652  1.576277
  N    -1.200484  2.609972  1.011635
  N    -1.112206  5.823972  1.416732
  N    -3.385689  1.746847  0.087853
  N    -3.332301  5.380295  0.257798
  N    -3.855465  2.357960  3.889616
  N    -3.970456  5.914716  4.030682
  S    -4.698383  1.968844  2.546780
  S    -4.687634  5.427841  2.638099
  S    -1.818097  2.048591 -0.388296
  S    -1.757335  5.763018 -0.157017
  S    -2.239504  2.616211  3.711153
  S    -2.352367  6.142014  3.913564
