16  
    
  C     0.189480  3.584100  2.314851
  C     0.187923  7.446933  2.858096
  C    -1.040539  3.159040  1.716217
  C    -0.915018  6.778470  2.241087
  N     1.223317  3.677235  1.449468
  N     1.245745  7.652303  2.130914
  N    -1.101045  3.258601  0.369195
  N    -0.632728  6.325701  1.021554
  N    -1.530283  3.231942  4.262384
  N    -1.571067  7.225642  4.730299
  S    -2.393039  2.983379  2.808614
  S    -2.275040  6.593294  3.312149
  S     0.461204  3.499566 -0.082316
  S     0.863135  6.998154  0.579194
  S     0.095181  3.472456  4.045091
  S    -0.043470  7.870946  4.537862
