16  
    
  C    -1.776799  2.591831  2.371745
  C    -1.747887  6.050199  2.378208
  C    -2.995429  2.169742  1.741265
  C    -2.896994  5.583592  1.625482
  N    -0.673684  2.604706  1.608632
  N    -0.719857  6.422223  1.625659
  N    -2.833170  2.095332  0.436212
  N    -2.701441  5.399686  0.334892
  N    -3.595252  2.350856  4.235859
  N    -3.608499  5.756316  4.232697
  S    -4.385227  2.129122  2.787981
  S    -4.311528  5.365353  2.734167
  S    -1.273775  2.390837  0.062294
  S    -1.092614  5.889072  0.087783
  S    -1.932875  2.634353  4.171572
  S    -1.989268  6.078126  4.201020
