16  
    
  C    -0.000864  3.336907  2.471122
  C    -0.041602  7.126188  2.693710
  C    -1.095713  2.763056  1.811163
  C    -1.246437  6.745137  2.036893
  N     1.079734  3.596355  1.787025
  N     0.969088  7.435714  1.911338
  N    -0.975381  2.732099  0.488608
  N    -1.095397  6.561518  0.739308
  N    -1.840222  2.963135  4.290629
  N    -1.739838  6.603870  4.453775
  S    -2.404702  2.298844  2.883076
  S    -2.567739  6.448289  3.028389
  S     0.594943  3.255619  0.204518
  S     0.408807  7.188697  0.349984
  S    -0.213689  3.513764  4.180811
  S    -0.132723  7.137565  4.415339
