16  
    
  C    -1.810662  2.546948  2.044115
  C    -1.868216  6.443563  2.194105
  C    -3.082433  2.050809  1.493730
  C    -2.989319  5.614937  1.706723
  N    -0.787600  2.603222  1.200793
  N    -0.884411  6.652271  1.327165
  N    -2.946764  1.815715  0.199424
  N    -2.732041  5.161426  0.461170
  N    -3.447189  2.118995  4.027342
  N    -3.609597  6.211258  4.141069
  S    -4.339982  1.866504  2.657414
  S    -4.264746  5.313181  2.898893
  S    -1.384389  2.145787 -0.252014
  S    -1.335867  5.949406 -0.130305
  S    -1.881642  2.579118  3.808623
  S    -2.116682  6.868240  3.841263
