16  
    
  C     2.944716  5.235676  3.646885
  C     2.879050  8.826300  3.272079
  C     1.605972  5.117326  3.098212
  C     1.636823  8.421320  2.713392
  N     3.913657  4.861422  2.810255
  N     3.838933  8.852003  2.332487
  N     1.583655  4.771939  1.794874
  N     1.610254  7.984899  1.462013
  N     1.326575  5.514080  5.690174
  N     1.037696  8.836374  5.238653
  S     0.396668  5.376273  4.342273
  S     0.298401  8.495652  3.778565
  S     3.176088  4.692479  1.344052
  S     3.154945  8.103127  1.029745
  S     2.953062  5.440338  5.417897
  S     2.735759  9.063056  5.042915
