16  
    
  C    -3.756043  1.651709  1.802185
  C    -3.996223  5.473564  1.845655
  C    -5.013384  1.365976  1.176137
  C    -5.135202  5.212432  1.059293
  N    -2.720733  1.798982  0.991788
  N    -2.890529  5.770266  1.142183
  N    -4.987288  1.315149 -0.160966
  N    -4.950202  5.128673 -0.255289
  N    -5.473833  1.547178  3.665146
  N    -5.759129  4.600329  3.489069
  S    -6.351167  1.204934  2.298579
  S    -6.444845  4.673612  2.031185
  S    -3.428824  1.569775 -0.585716
  S    -3.376232  5.652818 -0.444708
  S    -3.852335  1.742882  3.528484
  S    -4.261844  5.292125  3.629175
