16  
    
  C     0.643001  3.893726  3.204962
  C     1.167972  7.560484  2.849053
  C    -0.491079  3.320203  2.484601
  C     0.000502  7.039797  2.129102
  N     1.772749  4.042086  2.485018
  N     2.219820  7.673013  2.048129
  N    -0.316452  3.280627  1.136781
  N     0.217084  6.871281  0.831393
  N    -1.133896  3.174182  4.926760
  N    -0.763509  7.285872  4.578533
  S    -1.883331  2.904591  3.456647
  S    -1.379704  6.752987  3.139781
  S     1.233080  3.835674  0.883604
  S     1.798068  7.187271  0.463036
  S     0.488111  3.635270  4.891322
  S     0.796655  7.900651  4.500096
