16  
    
  C    -1.818365  2.345924  2.050568
  C    -1.822561  6.058853  2.063764
  C    -3.041841  1.957893  1.302854
  C    -3.105708  5.719347  1.476048
  N    -0.714545  2.318481  1.296330
  N    -0.810458  6.311969  1.262909
  N    -2.841738  1.844400 -0.020227
  N    -2.973693  5.498746  0.163424
  N    -3.678886  2.085690  3.774761
  N    -3.564576  5.784777  3.997549
  S    -4.425079  1.836819  2.305382
  S    -4.489886  5.728566  2.589005
  S    -1.251772  2.121695 -0.303836
  S    -1.383156  5.817058 -0.186250
  S    -2.046095  2.409706  3.748405
  S    -1.953443  6.212346  3.818127
