16  
    
  C     1.883277  4.240446  3.304561
  C     1.802499  7.834328  3.047745
  C     0.613980  4.002536  2.705824
  C     0.488302  7.567837  2.447346
  N     2.939654  4.350012  2.539573
  N     2.823624  7.980957  2.155625
  N     0.674178  4.232763  1.429793
  N     0.447794  7.604574  1.109162
  N     0.182218  3.930598  5.221505
  N     0.092666  7.319461  4.950645
  S    -0.722559  3.809153  3.809980
  S    -0.770074  7.093683  3.526987
  S     2.348885  4.295472  0.959455
  S     2.053512  7.945612  0.692087
  S     1.819815  4.246754  5.046348
  S     1.706208  7.711489  4.788555
