16  
    
  C     1.340572  4.585765  3.266760
  C     1.442591  7.995775  3.134991
  C     0.059976  4.189159  2.785106
  C     0.210378  7.891859  2.416131
  N     2.201993  4.880640  2.297006
  N     2.502357  7.931302  2.378730
  N    -0.061959  3.950301  1.456267
  N     0.374414  7.579774  1.132888
  N    -0.143909  4.337276  5.395173
  N    -0.342820  8.048204  4.928049
  S    -1.093892  4.086089  4.124353
  S    -1.157697  8.041877  3.473646
  S     1.432190  4.293372  0.925247
  S     1.968314  7.664387  0.799462
  S     1.443948  4.653180  5.040354
  S     1.316134  8.107516  4.801841
