16  
    
  C    -3.434868  1.748587  1.592827
  C    -3.925512  5.308235  1.622440
  C    -4.546668  1.113866  1.023076
  C    -5.170861  4.868446  1.027144
  N    -2.467645  1.981046  0.691739
  N    -2.929626  5.411963  0.791691
  N    -4.528102  1.008796 -0.308398
  N    -5.107845  4.595801 -0.272984
  N    -5.103886  1.556301  3.457937
  N    -5.552788  5.137055  3.536342
  S    -5.924403  0.955131  2.155609
  S    -6.307797  4.556653  2.203275
  S    -3.030734  1.607162 -0.771643
  S    -3.545321  5.058989 -0.739667
  S    -3.596946  2.175899  3.268439
  S    -3.950305  5.579067  3.337837
