16  
    
  C    -1.556714  2.625492  2.409710
  C    -1.517264  6.432784  2.333776
  C    -2.704565  2.217629  1.592121
  C    -2.730473  5.916412  1.730165
  N    -0.456571  2.733251  1.656138
  N    -0.498613  6.509171  1.459002
  N    -2.450609  1.893437  0.309645
  N    -2.595822  5.658049  0.443348
  N    -3.458793  2.472932  4.034406
  N    -3.248238  6.245453  4.208423
  S    -4.045764  1.833827  2.627205
  S    -4.063005  5.736276  2.796207
  S    -0.811797  2.251976  0.098035
  S    -1.125564  6.163385 -0.025891
  S    -1.889083  3.027674  4.033159
  S    -1.640632  6.605181  4.016921
