16  
    
  C     2.069742  4.968493  3.217572
  C     2.110170  8.609650  3.294167
  C     0.888863  4.607216  2.430908
  C     0.899453  8.253765  2.592386
  N     3.135172  5.245544  2.477712
  N     3.164915  8.799264  2.492526
  N     1.062755  4.464083  1.123442
  N     0.983118  8.178054  1.238856
  N    -0.001889  4.640790  4.882769
  N     0.358901  8.134979  5.171026
  S    -0.546344  4.151300  3.348033
  S    -0.414578  7.813142  3.686992
  S     2.656745  4.914575  0.893313
  S     2.581708  8.605444  0.908192
  S     1.586438  5.268514  4.802546
  S     1.939106  8.671788  5.019211
