16  
    
  C     2.919408  5.111521  3.197567
  C     2.816955  9.092201  3.488999
  C     1.692700  4.552982  2.662369
  C     1.752077  8.370818  2.814672
  N     3.817629  5.481151  2.255153
  N     3.785958  9.618880  2.819587
  N     1.822201  4.199428  1.372989
  N     2.047092  8.194560  1.542607
  N     1.280654  4.810688  5.234205
  N     1.146851  8.636074  5.353767
  S     0.555055  4.164165  3.883536
  S     0.450713  8.019436  4.017492
  S     3.291450  4.845601  0.827155
  S     3.532033  9.105889  1.262705
  S     2.759269  5.476001  4.908636
  S     2.664790  9.222014  5.201292
