16  
    
  C    -3.390868  1.740955  1.554847
  C    -3.743702  5.378151  1.657110
  C    -4.580445  1.118988  0.988251
  C    -4.956193  4.971465  1.044386
  N    -2.366184  1.818846  0.679955
  N    -2.771531  5.735163  0.854869
  N    -4.429109  0.890726 -0.309014
  N    -4.919339  4.871199 -0.276190
  N    -5.065883  1.447535  3.506116
  N    -5.520342  5.244098  3.533882
  S    -5.808722  0.929383  2.163945
  S    -6.288530  4.734705  2.166304
  S    -2.884635  1.336621 -0.763965
  S    -3.351358  5.311963 -0.732576
  S    -3.612712  2.146006  3.305254
  S    -3.943303  5.560009  3.351388
