16  
    
  C    -0.352992  3.259319  2.527785
  C    -0.288757  7.030746  2.268785
  C    -1.723776  3.091741  1.976762
  C    -1.589760  6.575645  1.746620
  N     0.617674  3.565520  1.646833
  N     0.672917  7.100739  1.355284
  N    -1.649782  2.920252  0.645389
  N    -1.565434  6.412224  0.421532
  N    -2.008662  3.168707  4.574380
  N    -1.921379  6.669222  4.367376
  S    -2.920394  2.977772  3.206100
  S    -2.807102  6.319821  3.036224
  S    -0.062409  3.158350  0.176228
  S    -0.073320  6.805849 -0.138804
  S    -0.374442  3.464007  4.242323
  S    -0.339906  7.111946  4.080873
