16  
    
  C     0.508549  3.662712  2.932285
  C     0.539948  7.521191  2.886135
  C    -0.856946  3.539685  2.384110
  C    -0.592277  7.002749  2.185481
  N     1.475402  3.714217  2.041402
  N     1.638695  7.682873  2.138082
  N    -0.870055  3.528274  1.084076
  N    -0.358346  6.853692  0.895828
  N    -1.070792  3.580439  4.976532
  N    -1.384805  7.266719  4.582113
  S    -2.023503  3.289890  3.576665
  S    -2.040118  7.049488  3.083863
  S     0.755816  3.728832  0.553994
  S     1.308977  7.224997  0.557502
  S     0.524811  3.775578  4.665601
  S     0.161811  7.715380  4.575869
