16  
    
  C    -5.428104  1.060340  1.262513
  C    -5.361903  4.998786  1.460856
  C    -6.561371  0.462351  0.575618
  C    -6.479502  4.386790  0.720039
  N    -4.366815  1.441990  0.554509
  N    -4.307879  5.338781  0.746325
  N    -6.451785  0.424397 -0.738872
  N    -6.244878  4.210682 -0.573661
  N    -7.236085  0.490957  3.108482
  N    -7.036435  4.229714  3.303891
  S    -7.923734  0.139227  1.651946
  S    -7.832084  4.019429  1.850861
  S    -4.947202  1.151416 -1.029758
  S    -4.750200  4.900216 -0.820420
  S    -5.725820  1.151270  2.967444
  S    -5.670361  5.215920  3.236671
