16  
    
  C     0.734855  3.689432  3.186732
  C     1.219322  7.556351  2.891901
  C    -0.510732  3.436650  2.511890
  C     0.000644  7.014317  2.190510
  N     1.704650  4.106554  2.338694
  N     2.294213  7.644685  2.090308
  N    -0.342529  3.355698  1.163145
  N     0.216738  6.761590  0.898412
  N    -1.000496  3.246581  5.030191
  N    -0.768995  7.496125  4.584564
  S    -1.819922  3.043011  3.590864
  S    -1.401146  6.836847  3.156319
  S     1.231739  3.712324  0.863040
  S     1.789352  7.176170  0.611461
  S     0.602499  3.638298  4.877041
  S     0.822476  7.958673  4.548175
