16  
    
  C    -1.783628  2.407413  2.362084
  C    -1.844189  6.241835  2.309090
  C    -2.944136  1.839075  1.716525
  C    -3.058878  5.691857  1.752291
  N    -0.808133  2.648070  1.504048
  N    -0.883619  6.390649  1.412693
  N    -2.889177  1.758208  0.388425
  N    -2.986722  5.436072  0.441109
  N    -3.605100  2.178598  4.156352
  N    -3.465357  5.880597  4.259849
  S    -4.409660  1.731523  2.773745
  S    -4.262211  5.292630  2.901107
  S    -1.319199  2.200813  0.002283
  S    -1.460971  5.913010 -0.116568
  S    -2.006481  2.589940  4.055723
  S    -1.963348  6.632520  4.025995
