16  
    
  C    -0.224690  3.314410  2.604962
  C    -0.071679  6.950257  2.412691
  C    -1.405210  2.691441  2.017060
  C    -1.204712  6.477261  1.709138
  N     0.830292  3.421661  1.805303
  N     0.940959  7.299229  1.643766
  N    -1.263234  2.395030  0.720481
  N    -1.213563  6.563626  0.381661
  N    -1.952906  2.859236  4.540361
  N    -1.915997  6.395612  4.250550
  S    -2.656623  2.235338  3.166799
  S    -2.565703  5.997423  2.771205
  S     0.240214  2.942736  0.291796
  S     0.356870  7.033022  0.015675
  S    -0.406593  3.472896  4.296668
  S    -0.336437  7.001258  4.202043
