16  
    
  C     0.235522  3.495896  2.778594
  C     0.274346  7.414552  2.701479
  C    -0.956958  3.032364  2.063480
  C    -1.004582  7.328313  2.080185
  N     1.159343  4.032431  1.983867
  N     1.299975  7.459488  1.882038
  N    -0.750494  2.857570  0.753675
  N    -0.948589  7.392010  0.757653
  N    -1.652964  3.008120  4.569356
  N    -1.414582  7.390568  4.581042
  S    -2.337989  2.656403  3.111554
  S    -2.311731  7.274591  3.215773
  S     0.783820  3.458226  0.475558
  S     0.705915  7.602544  0.337832
  S    -0.091835  3.741081  4.463433
  S     0.245503  7.562835  4.367286
