16  
    
  C    -5.367401  1.189791  1.304436
  C    -5.486048  4.833642  1.573399
  C    -6.567754  0.677038  0.654330
  C    -6.705306  4.470774  0.916168
  N    -4.400775  1.457117  0.454851
  N    -4.469069  4.947597  0.760674
  N    -6.384398  0.469329 -0.634538
  N    -6.622910  4.327032 -0.386882
  N    -7.171501  0.762455  3.144964
  N    -7.254460  4.677846  3.443306
  S    -7.793942  0.075474  1.773725
  S    -8.012500  4.125761  2.034479
  S    -4.876018  0.996989 -1.033419
  S    -5.021711  4.665255 -0.797632
  S    -5.561939  1.186659  2.990773
  S    -5.609920  4.875138  3.373063
