16  
    
  C     0.737997  3.787074  2.844774
  C     0.575433  7.581016  2.710746
  C    -0.503195  3.343313  2.284932
  C    -0.578441  6.942348  2.241072
  N     1.708039  4.005049  1.930633
  N     1.488367  7.822265  1.791845
  N    -0.514707  3.320986  0.980712
  N    -0.564527  6.573109  0.948311
  N    -1.013539  3.579367  4.757929
  N    -0.908657  7.284811  4.786396
  S    -1.874437  3.232035  3.421733
  S    -1.784563  6.638654  3.519316
  S     1.016588  3.680794  0.448543
  S     0.962762  7.161743  0.402122
  S     0.644331  3.906372  4.569081
  S     0.469299  8.105613  4.338768
