16  
    
  C    -5.359499  1.026568  1.383730
  C    -5.498901  4.732323  1.613365
  C    -6.467460  0.464975  0.734491
  C    -6.758300  4.335550  1.053467
  N    -4.405145  1.337305  0.497809
  N    -4.500178  4.834167  0.734885
  N    -6.380016  0.408229 -0.594135
  N    -6.712429  4.247148 -0.275413
  N    -7.111382  0.901013  3.141539
  N    -7.036959  4.297436  3.556736
  S    -7.795320  0.277810  1.831235
  S    -8.024433  4.256535  2.191536
  S    -4.890529  0.967763 -0.994454
  S    -5.120718  4.509977 -0.742336
  S    -5.509394  1.311168  3.098146
  S    -5.511934  4.880808  3.268090
