16  
    
  C     0.959572  4.025794  2.588282
  C     1.484872  7.826638  3.288727
  C    -0.241946  3.536619  1.836864
  C     0.171001  7.783629  2.628580
  N     2.032769  4.209020  1.840147
  N     2.533323  7.892261  2.470482
  N    -0.031213  3.288643  0.547262
  N     0.283319  7.739434  1.302340
  N    -0.982872  3.659012  4.289446
  N    -0.253159  7.887433  5.113506
  S    -1.630355  3.201346  2.899149
  S    -1.108728  7.739286  3.751288
  S     1.549948  3.777881  0.239764
  S     1.862567  7.803262  0.918081
  S     0.640587  4.062089  4.265078
  S     1.396368  8.028966  4.957367
