16  
    
  C    -3.222293  1.842092  1.898915
  C    -3.211417  5.681050  2.135631
  C    -4.393310  1.591271  1.147182
  C    -4.363315  5.122757  1.464693
  N    -2.076640  1.961567  1.191735
  N    -2.287104  6.076186  1.274725
  N    -4.122226  1.339650 -0.122769
  N    -4.282900  5.063608  0.142675
  N    -5.171669  1.752919  3.660576
  N    -4.783568  5.235240  4.031606
  S    -5.724672  1.180124  2.203504
  S    -5.645585  4.786499  2.598234
  S    -2.444032  1.581391 -0.368807
  S    -2.760639  5.552820 -0.253412
  S    -3.542307  1.999425  3.613609
  S    -3.223570  5.820582  3.847767
