16  
    
  C    -2.723191  2.653633  2.354500
  C    -2.780984  6.061140  1.929235
  C    -3.914235  2.024970  1.726912
  C    -3.879362  5.533694  1.193276
  N    -1.768974  3.024429  1.500085
  N    -1.652413  6.361849  1.278825
  N    -3.694434  1.786265  0.430487
  N    -3.631328  5.541129 -0.178578
  N    -4.381544  2.119537  4.227632
  N    -4.452234  5.434949  3.733777
  S    -5.047725  1.358935  2.917647
  S    -5.185517  5.224232  2.275053
  S    -2.242503  2.436535 -0.019180
  S    -2.115656  6.170187 -0.333656
  S    -2.881621  2.781057  4.048580
  S    -3.003850  6.224743  3.685294
