16  
    
  C    -5.672034  0.812300  1.536394
  C    -5.663868  4.674094  1.305424
  C    -6.844260  0.391084  0.868867
  C    -6.904480  4.189386  0.747902
  N    -4.585147  0.882558  0.730865
  N    -4.719308  4.905391  0.382829
  N    -6.642111  0.312372 -0.447194
  N    -6.847166  4.094155 -0.592821
  N    -7.419224  0.489229  3.324886
  N    -7.408811  4.421612  3.233768
  S    -8.210166  0.300720  1.881684
  S    -8.209484  4.028367  1.842210
  S    -5.056884  0.570928 -0.811698
  S    -5.352093  4.581125 -1.115995
  S    -5.924351  1.109081  3.299332
  S    -5.854831  4.890315  2.969191
