16  
    
  C     0.440714  3.832887  2.843345
  C     0.832462  7.591467  2.645724
  C    -0.509797  3.014755  2.109518
  C    -0.372992  7.140316  1.989054
  N     1.584270  4.001671  2.150435
  N     1.753722  8.046800  1.821248
  N    -0.234755  2.916731  0.816811
  N    -0.250940  7.247759  0.670303
  N    -1.403819  3.193860  4.535886
  N    -0.702275  6.822809  4.506822
  S    -1.996500  2.657790  3.025602
  S    -1.512251  6.483601  3.111579
  S     1.180826  3.641511  0.588639
  S     1.248481  7.837951  0.270476
  S     0.146793  3.729717  4.581407
  S     0.765894  7.502722  4.332407
