16  
    
  C    -3.312691  1.648018  2.064381
  C    -3.146570  5.441827  2.053253
  C    -4.580463  1.254633  1.535120
  C    -4.327208  5.000659  1.372459
  N    -2.406311  1.802508  1.108543
  N    -2.056461  5.547447  1.293177
  N    -4.667173  1.259945  0.209027
  N    -4.090036  4.693774  0.085495
  N    -4.963727  1.530057  4.028564
  N    -4.915815  5.090792  3.920783
  S    -5.829848  1.115251  2.691145
  S    -5.668499  4.782693  2.502382
  S    -3.130221  1.567281 -0.305524
  S    -2.514626  5.179663 -0.277531
  S    -3.376550  1.784537  3.720368
  S    -3.364654  5.764274  3.767999
