16  
    
  C    -0.687049  2.906228  2.640795
  C    -1.345720  6.634596  2.553517
  C    -1.965478  2.635104  1.991135
  C    -2.429838  5.970973  1.849549
  N     0.326881  3.092774  1.759677
  N    -0.292029  6.818405  1.772119
  N    -1.823692  2.345305  0.682753
  N    -2.200042  5.718739  0.557611
  N    -2.592588  2.950598  4.469099
  N    -2.952489  5.945786  4.294223
  S    -3.347044  2.503505  2.996945
  S    -3.751315  5.596486  2.843335
  S    -0.269446  2.679082  0.261936
  S    -0.739430  6.403236  0.254682
  S    -0.914132  3.289790  4.313662
  S    -1.420622  6.559422  4.209023
