16  
    
  C    -4.406890  1.308861  1.972053
  C    -4.575367  4.840530  1.710055
  C    -5.611232  0.819382  1.321350
  C    -5.651162  4.351259  0.958670
  N    -3.581922  1.784447  1.082801
  N    -3.542872  5.248380  0.991331
  N    -5.596798  0.684984  0.018302
  N    -5.474256  4.318938 -0.330314
  N    -5.936840  0.862170  3.812057
  N    -6.432634  4.082862  3.332369
  S    -6.773459  0.394926  2.505930
  S    -7.012437  3.785723  1.820598
  S    -4.132152  1.455486 -0.437200
  S    -4.008660  5.051446 -0.595303
  S    -4.409328  1.491525  3.682809
  S    -4.927061  4.803231  3.375736
