16  
    
  C    -4.190010  1.373635  1.875485
  C    -4.097960  4.973934  2.016993
  C    -5.440430  1.222040  1.243015
  C    -5.359661  4.721738  1.436792
  N    -3.082730  1.464679  1.138525
  N    -3.105005  5.041180  1.153803
  N    -5.334347  1.049092 -0.052994
  N    -5.316976  4.437552  0.135969
  N    -6.003959  1.470062  3.619616
  N    -5.759622  5.322725  3.836427
  S    -6.833441  1.185167  2.217789
  S    -6.663844  4.973280  2.524041
  S    -3.672655  1.192863 -0.394514
  S    -3.720681  4.605826 -0.261300
  S    -4.362543  1.526908  3.583346
  S    -4.130227  5.566116  3.591692
