16  
    
  C     1.606775  4.468609  3.383475
  C     1.371509  7.939774  3.097703
  C     0.279527  4.083973  2.926667
  C     0.183092  7.565531  2.448521
  N     2.623100  4.327639  2.511362
  N     2.416341  8.178221  2.318136
  N     0.246456  4.055406  1.579758
  N     0.339827  7.541556  1.126640
  N    -0.101354  4.692404  5.467122
  N    -0.412932  7.756912  4.894855
  S    -1.044107  4.200668  4.116973
  S    -1.179878  7.288584  3.477999
  S     1.767599  4.089886  1.071333
  S     1.863744  7.936240  0.739916
  S     1.563359  4.864482  5.124224
  S     1.205634  8.218455  4.760602
