16  
    
  C     2.965548  4.852078  3.696621
  C     2.795190  8.893246  3.305914
  C     1.632812  4.979453  3.105926
  C     1.570581  8.462778  2.720688
  N     3.946746  4.902569  2.785251
  N     3.918376  8.796701  2.611884
  N     1.613219  4.888176  1.786519
  N     1.805528  7.956798  1.507203
  N     1.268369  5.543307  5.581429
  N     1.158275  8.759139  5.235045
  S     0.363129  5.292053  4.208141
  S     0.229248  8.524556  3.898402
  S     3.166834  4.772063  1.265302
  S     3.427408  8.172911  1.105000
  S     2.920566  5.375931  5.385320
  S     2.765462  9.016036  5.027514
