16  
    
  C     0.867667  3.964496  2.528108
  C     1.547258  7.941159  3.319323
  C    -0.291874  3.433485  1.865710
  C     0.296540  7.904195  2.677417
  N     1.988229  4.021862  1.799561
  N     2.551341  7.970073  2.462600
  N    -0.248266  3.391389  0.525372
  N     0.326723  7.821590  1.361322
  N    -0.887098  3.570501  4.346713
  N    -0.222617  7.828571  5.192580
  S    -1.633225  3.179771  2.960097
  S    -1.067577  7.833412  3.779089
  S     1.395719  3.710728  0.220397
  S     1.897338  7.914212  0.853026
  S     0.745085  4.060061  4.254526
  S     1.456700  8.035628  5.059455
