16  
    
  C    -2.403522  2.248434  2.129620
  C    -2.596016  5.663104  2.103639
  C    -3.642781  1.986594  1.474765
  C    -3.811557  5.218263  1.488185
  N    -1.401056  2.250102  1.280733
  N    -1.605237  5.815341  1.191308
  N    -3.654928  1.861531  0.150808
  N    -3.773578  5.072442  0.176233
  N    -4.166357  2.038615  4.052574
  N    -4.374261  5.333868  4.010645
  S    -4.974008  1.900551  2.602701
  S    -5.176813  4.959934  2.565152
  S    -2.016783  1.941357 -0.234838
  S    -2.234207  5.637115 -0.294671
  S    -2.531525  2.334792  3.893616
  S    -2.778961  5.711402  3.839674
