16  
    
  C    -4.333281  1.590829  2.036611
  C    -4.626943  5.254470  1.714784
  C    -5.450695  0.901784  1.383989
  C    -5.826138  4.625787  1.149164
  N    -3.314582  1.743641  1.230455
  N    -3.651689  5.337857  0.834533
  N    -5.311873  0.728065  0.074374
  N    -5.758544  4.337936 -0.126316
  N    -6.157931  1.373336  3.856964
  N    -6.293937  4.746261  3.616569
  S    -6.828044  0.823257  2.391836
  S    -7.110232  4.476462  2.231592
  S    -3.811871  1.248046 -0.305024
  S    -4.254425  4.830482 -0.627534
  S    -4.527595  1.917824  3.684371
  S    -4.776086  5.402781  3.395417
