16  
    
  C     0.161848  3.499688  2.317570
  C     0.203909  7.250082  2.900261
  C    -1.110064  3.106146  1.620562
  C    -0.975765  6.729090  2.214875
  N     1.167325  3.729977  1.507899
  N     1.265929  7.559045  2.111110
  N    -0.966517  3.005673  0.305658
  N    -0.824023  6.567200  0.903672
  N    -1.463373  2.921802  4.268665
  N    -1.691755  7.230469  4.661458
  S    -2.380322  2.876775  2.816289
  S    -2.344640  6.532319  3.291450
  S     0.570509  3.495401 -0.056208
  S     0.727926  6.997230  0.579248
  S     0.128820  3.401897  4.048046
  S    -0.131341  7.742577  4.546546
