16  
    
  C     2.269241  4.455532  3.067682
  C     1.943675  8.403023  3.051220
  C     1.135954  3.878394  2.360844
  C     0.796313  7.671751  2.532877
  N     3.361306  4.472562  2.307342
  N     3.045399  8.377060  2.335036
  N     1.241809  3.728798  1.030810
  N     0.998335  7.112292  1.329612
  N     0.289168  4.370869  4.693862
  N     0.141228  8.658306  4.876644
  S    -0.366263  3.870100  3.267283
  S    -0.531519  7.617098  3.756709
  S     2.901442  3.952192  0.762069
  S     2.611873  7.636183  0.940256
  S     1.856489  4.577864  4.726612
  S     1.750176  9.073494  4.622167
