16  
    
  C    -1.205551  3.279536  2.132462
  C    -1.043666  6.971950  2.581656
  C    -2.394302  2.681378  1.521719
  C    -2.293809  6.733139  1.911153
  N    -0.343371  3.653283  1.212115
  N    -0.006764  7.204785  1.777453
  N    -2.428960  2.660976  0.186163
  N    -2.188139  6.602249  0.590192
  N    -2.836379  2.901198  4.096995
  N    -2.808019  6.675620  4.562818
  S    -3.575875  2.241328  2.737664
  S    -3.687430  6.714560  3.134171
  S    -0.950214  3.266018 -0.298983
  S    -0.633430  7.011600  0.230111
  S    -1.351847  3.648970  3.828986
  S    -1.137219  6.949981  4.352625
