16  
    
  C    -3.394323  1.636090  2.071838
  C    -3.104464  5.430388  2.080740
  C    -4.652917  1.232248  1.470480
  C    -4.348710  4.996232  1.443245
  N    -2.400900  1.545706  1.203448
  N    -2.069625  5.594114  1.258933
  N    -4.606301  1.080705  0.143652
  N    -4.236075  4.837832  0.155353
  N    -5.089806  1.644582  3.968533
  N    -4.919706  5.149303  3.878609
  S    -5.969426  1.155178  2.660260
  S    -5.688685  4.931113  2.475786
  S    -2.981896  1.303522 -0.320512
  S    -2.713464  5.112198 -0.250020
  S    -3.451805  1.735407  3.875634
  S    -3.364370  5.705522  3.758204
