16  
    
  C     2.966477  5.152798  3.198827
  C     2.901848  9.225409  3.785362
  C     1.803721  4.560252  2.618256
  C     1.753298  8.670122  3.039746
  N     4.032803  5.154566  2.390859
  N     3.961683  9.368502  3.035261
  N     1.854565  4.392945  1.280182
  N     1.920998  8.543256  1.745075
  N     1.150768  4.980727  5.090059
  N     1.125241  8.773856  5.676947
  S     0.462846  4.420313  3.674058
  S     0.449251  8.288979  4.205922
  S     3.444171  4.788984  0.864647
  S     3.573667  8.880535  1.519280
  S     2.736709  5.388551  4.974714
  S     2.668909  9.453706  5.467329
