16  
    
  C    -1.088521  3.179776  2.418872
  C    -0.649689  6.727905  2.274197
  C    -2.360906  2.747284  1.785142
  C    -1.950925  6.513881  1.686784
  N    -0.033658  3.029906  1.619460
  N     0.275985  6.783098  1.355326
  N    -2.272620  2.452144  0.488510
  N    -1.951196  6.259041  0.387650
  N    -2.955298  3.163643  4.224257
  N    -2.327124  6.584770  4.275303
  S    -3.768438  3.053860  2.774505
  S    -3.199334  6.369282  2.902640
  S    -0.673292  2.680665  0.093764
  S    -0.398732  6.619618 -0.156400
  S    -1.290632  3.283699  4.125003
  S    -0.774508  6.907839  4.060604
