16  
    
  C    -0.324463  3.186019  2.571466
  C    -0.197666  6.993739  2.340636
  C    -1.506541  2.641148  2.082058
  C    -1.297416  6.327888  1.779494
  N     0.695697  3.299131  1.732999
  N     0.745578  7.388792  1.483434
  N    -1.447829  2.438590  0.767045
  N    -1.148408  6.014876  0.488726
  N    -1.885082  2.913591  4.605665
  N    -1.984615  6.648776  4.243492
  S    -2.776579  2.449207  3.290030
  S    -2.601666  5.924099  2.879738
  S     0.045364  2.995381  0.259116
  S     0.302533  6.703065  0.024861
  S    -0.311205  3.301316  4.295785
  S    -0.444905  7.263505  4.123260
