16  
    
  C    -0.272152  3.214720  2.561916
  C    -0.240485  7.004257  2.337706
  C    -1.602573  2.897851  1.974558
  C    -1.512556  6.553951  1.679899
  N     0.613674  3.538437  1.618213
  N     0.739838  7.175521  1.462710
  N    -1.579194  2.651606  0.673932
  N    -1.496891  6.498929  0.368168
  N    -2.042705  3.189762  4.534205
  N    -1.916068  6.716450  4.210480
  S    -2.918863  2.887300  3.092489
  S    -2.812736  6.524824  2.826172
  S    -0.066975  3.022980  0.153029
  S     0.050983  6.854270 -0.054082
  S    -0.413999  3.447483  4.245835
  S    -0.307793  7.160195  4.039799
