16  
    
  C     2.233955  4.302176  3.070449
  C     1.973849  8.265910  3.131384
  C     1.083787  4.051504  2.277315
  C     0.851136  7.614366  2.581714
  N     3.363596  4.482816  2.358129
  N     3.058410  8.192076  2.348557
  N     1.348233  3.827942  0.981134
  N     1.075437  7.064222  1.400419
  N     0.251309  4.371565  4.711656
  N     0.137050  8.259903  4.890737
  S    -0.401611  3.923037  3.308352
  S    -0.569293  7.581955  3.562564
  S     2.939743  4.025127  0.829958
  S     2.567600  7.427480  0.923723
  S     1.819072  4.809163  4.684608
  S     1.636343  8.906443  4.733001
