16  
    
  C     3.115965  5.063091  3.404920
  C     3.217254  8.860467  3.625472
  C     1.968845  4.572351  2.705367
  C     2.012809  8.551168  2.935832
  N     4.149697  5.405156  2.628593
  N     4.252853  9.092546  2.843371
  N     2.236121  4.284992  1.391228
  N     2.134620  8.603673  1.573287
  N     1.184775  5.004770  5.147787
  N     1.479206  8.941346  5.506018
  S     0.645663  4.160437  3.830854
  S     0.698570  8.560448  4.060887
  S     3.691851  4.998620  1.122550
  S     3.780921  8.873333  1.324796
  S     2.816183  5.347451  5.046932
  S     3.151467  9.290619  5.254313
