16  
    
  C     2.901047  5.480142  3.881063
  C     2.417855  8.607278  3.305463
  C     1.781676  4.695878  3.392894
  C     1.237679  8.036445  2.625133
  N     3.920736  5.559800  3.025295
  N     3.492053  8.692129  2.550078
  N     1.817815  4.381667  2.085589
  N     1.462881  7.725599  1.344839
  N     1.161845  5.430466  5.790072
  N     0.572521  8.416812  5.071611
  S     0.418080  4.805181  4.404482
  S    -0.127702  7.858422  3.687504
  S     3.367585  4.743027  1.678810
  S     2.965998  8.247833  0.998850
  S     2.805936  5.751919  5.565765
  S     2.107612  8.810072  5.012534
