16  
    
  C     2.945862  5.225505  3.565587
  C     2.986688  8.759125  3.440523
  C     1.733326  4.874338  2.849169
  C     1.856189  8.200704  2.774499
  N     3.973045  5.511859  2.783381
  N     3.995343  9.184321  2.589605
  N     1.872014  4.795127  1.546362
  N     1.981560  8.009516  1.456032
  N     1.105198  4.950365  5.333227
  N     1.034265  8.416084  5.184543
  S     0.379118  4.562553  3.857766
  S     0.438289  7.970039  3.636083
  S     3.465045  5.282522  1.246097
  S     3.474451  8.695682  1.075705
  S     2.680356  5.344218  5.259666
  S     2.624216  8.867100  5.207163
