16  
    
  C     0.525619  3.725211  2.928778
  C     0.510928  7.502088  2.917663
  C    -0.826850  3.482983  2.376610
  C    -0.681258  7.141310  2.198832
  N     1.489320  3.801821  2.013210
  N     1.618864  7.622760  2.147683
  N    -0.830389  3.672911  1.051423
  N    -0.456120  6.829746  0.915380
  N    -1.076764  3.448025  4.944857
  N    -1.367928  7.301437  4.632527
  S    -2.067075  3.330166  3.579337
  S    -2.096490  7.052426  3.136368
  S     0.682556  3.866716  0.551250
  S     1.086993  7.196346  0.603211
  S     0.513278  3.524136  4.711036
  S     0.252186  7.814214  4.626763
