16  
    
  C     0.636303  3.565133  2.676123
  C     0.631165  7.697321  2.653210
  C    -0.655040  3.278009  2.168467
  C    -0.540879  6.997155  2.099973
  N     1.623201  3.862286  1.852613
  N     1.608480  8.038416  1.801611
  N    -0.709775  3.442447  0.857006
  N    -0.502053  6.841429  0.767928
  N    -1.039946  3.237708  4.705047
  N    -1.023583  7.290483  4.629497
  S    -1.941398  3.068556  3.322792
  S    -1.799870  6.632943  3.291182
  S     0.906063  3.651729  0.315556
  S     0.985766  7.535485  0.316895
  S     0.616083  3.494915  4.413652
  S     0.546992  7.821116  4.444212
