16  
    
  C    -2.013174  2.265088  1.978387
  C    -2.058018  5.821792  2.166642
  C    -3.270139  2.023528  1.369131
  C    -3.363279  5.543365  1.570364
  N    -0.989374  2.413044  1.140452
  N    -1.048160  5.892187  1.367079
  N    -3.170749  1.735358  0.068899
  N    -3.267087  5.637567  0.266593
  N    -3.807936  2.379848  3.844223
  N    -3.753617  5.761757  4.096792
  S    -4.590022  1.831085  2.482014
  S    -4.684344  5.477385  2.708906
  S    -1.609782  2.131027 -0.338811
  S    -1.617735  5.687908 -0.207647
  S    -2.148721  2.499634  3.731798
  S    -2.130064  6.096930  3.862460
