16  
    
  C     1.867560  4.283561  3.230952
  C     1.796220  7.836019  3.055996
  C     0.619190  3.876634  2.671035
  C     0.589039  7.396832  2.423660
  N     2.901163  4.272692  2.356100
  N     2.778579  8.216382  2.247371
  N     0.628259  3.892074  1.319941
  N     0.718031  7.432556  1.086674
  N     0.099265  4.187298  5.175924
  N     0.206901  7.401485  5.005879
  S    -0.730469  4.051686  3.722829
  S    -0.647736  7.090590  3.595617
  S     2.201220  4.150798  0.807977
  S     2.185665  8.093498  0.728849
  S     1.819600  4.180783  4.998388
  S     1.825286  7.819581  4.761885
