16  
    
  C     0.912305  3.687961  3.072737
  C     1.161338  7.594877  2.981656
  C    -0.415534  3.475598  2.535601
  C    -0.008741  7.040974  2.327889
  N     1.878564  3.830645  2.114211
  N     2.196688  7.714698  2.154751
  N    -0.351010  3.195846  1.221233
  N     0.201570  6.718210  1.054664
  N    -0.835891  3.453461  5.017554
  N    -0.762119  7.697071  4.714241
  S    -1.711165  3.268058  3.651954
  S    -1.469158  6.993089  3.372420
  S     1.131268  3.563799  0.703160
  S     1.797510  7.102582  0.692435
  S     0.801391  3.928172  4.770924
  S     0.878722  7.955646  4.655667
