16  
    
  C    -0.345842  3.353411  2.640403
  C    -0.307381  6.886753  2.427483
  C    -1.512737  2.670060  2.075967
  C    -1.386967  6.187845  1.898103
  N     0.734811  3.357099  1.839600
  N     0.665887  7.237841  1.576213
  N    -1.440106  2.440950  0.768054
  N    -1.311203  5.907819  0.589653
  N    -2.057270  2.855826  4.625394
  N    -1.995319  6.836060  4.421561
  S    -2.857166  2.493450  3.193484
  S    -2.685275  5.967301  3.203413
  S     0.067646  2.945099  0.315016
  S     0.184304  6.493963  0.091656
  S    -0.488750  3.444806  4.350098
  S    -0.511224  7.497529  4.079095
