16  
    
  C    -0.754004  3.096400  2.605721
  C    -1.307652  6.589467  2.526287
  C    -1.934516  2.575095  2.006759
  C    -2.424365  5.959755  1.905552
  N     0.304118  3.070556  1.814767
  N    -0.277250  6.901157  1.745621
  N    -1.798227  2.273041  0.732946
  N    -2.252493  5.779462  0.613219
  N    -2.527230  2.996304  4.431633
  N    -3.047528  5.976037  4.297971
  S    -3.318746  2.599368  3.062270
  S    -3.783937  5.569489  2.821136
  S    -0.260636  2.683562  0.316100
  S    -0.770474  6.443817  0.237857
  S    -0.927075  3.278089  4.376333
  S    -1.464858  6.572463  4.256774
