16  
    
  C     0.995467  4.248974  2.613834
  C     1.142238  7.935771  3.115563
  C    -0.045652  3.375846  2.027776
  C    -0.148427  7.520303  2.495764
  N     2.028786  4.292470  1.747088
  N     2.168527  8.011764  2.280983
  N     0.150225  3.127119  0.734584
  N    -0.011388  7.253925  1.189253
  N    -0.879731  4.192752  4.319312
  N    -0.590638  7.802258  5.095825
  S    -1.386680  3.268766  3.035904
  S    -1.413678  7.507245  3.696352
  S     1.696159  3.512999  0.390132
  S     1.606877  7.591642  0.834554
  S     0.728868  4.687736  4.316041
  S     1.031862  8.109091  4.859627
