16  
    
  C     0.593365  3.484111  2.740096
  C     0.633004  7.633133  2.615703
  C    -0.723051  3.443717  2.082873
  C    -0.496936  7.064529  2.013110
  N     1.616067  3.658794  1.903170
  N     1.649116  8.059688  1.852988
  N    -0.679575  3.254800  0.771840
  N    -0.439782  7.045085  0.683614
  N    -1.152867  3.261797  4.606828
  N    -0.931965  7.020508  4.633921
  S    -1.921579  2.898257  3.188519
  S    -1.731210  6.648981  3.190873
  S     0.925396  3.655895  0.356573
  S     1.030077  7.694643  0.315727
  S     0.487486  3.560970  4.507109
  S     0.587642  7.702604  4.374013
