16  
    
  C    -0.425123  3.413181  2.646610
  C    -0.235592  6.965618  2.507061
  C    -1.381641  2.511071  2.079726
  C    -1.370759  6.546969  1.816178
  N     0.721022  3.577776  1.958945
  N     0.834640  7.218840  1.753579
  N    -1.088305  2.110235  0.855178
  N    -1.181247  6.297755  0.527169
  N    -2.201339  3.080935  4.450810
  N    -2.236786  6.919813  4.225993
  S    -2.825710  2.292683  3.126081
  S    -2.858539  6.491605  2.738976
  S     0.365178  2.809160  0.490136
  S     0.377549  6.637133  0.229529
  S    -0.720039  3.733457  4.316772
  S    -0.644905  7.429426  4.226262
