16  
    
  C    -3.413405  1.599417  2.046369
  C    -3.109033  5.437702  2.070281
  C    -4.658217  1.232461  1.479078
  C    -4.336722  5.073593  1.476570
  N    -2.380252  1.527636  1.199953
  N    -2.091406  5.559387  1.237761
  N    -4.570009  1.059390  0.158538
  N    -4.286086  4.814647  0.195003
  N    -5.143763  1.624469  4.000659
  N    -4.948750  5.183852  3.892028
  S    -5.963961  1.172805  2.638046
  S    -5.700999  4.941401  2.497740
  S    -2.957410  1.248836 -0.300827
  S    -2.724159  5.116255 -0.247462
  S    -3.515334  1.739194  3.870679
  S    -3.365370  5.684934  3.729671
