16  
    
  C    -1.862133  2.379131  2.528349
  C    -1.708266  5.799277  2.394882
  C    -3.170198  2.227789  1.828528
  C    -2.908421  5.561446  1.583062
  N    -0.831119  2.577154  1.705270
  N    -0.616548  5.923487  1.640349
  N    -3.026757  2.087790  0.523906
  N    -2.738800  5.714363  0.281632
  N    -3.668094  2.186537  4.368411
  N    -3.623768  5.569085  4.096224
  S    -4.482115  1.970188  2.918921
  S    -4.286853  5.335355  2.597135
  S    -1.404964  2.463288  0.176195
  S    -1.077395  5.880695  0.004828
  S    -2.029242  2.485041  4.270596
  S    -2.019730  5.917495  4.095268
