16  
    
  C     0.178350  3.747526  2.804884
  C     0.316703  7.466508  2.699593
  C    -0.877881  3.057392  2.160946
  C    -0.983329  7.439928  2.101189
  N     1.267002  3.938360  2.065183
  N     1.336006  7.501323  1.831145
  N    -0.715775  2.960595  0.855276
  N    -0.960483  7.510878  0.756132
  N    -1.524276  3.023048  4.591847
  N    -1.373612  7.451460  4.732026
  S    -2.283355  2.743612  3.096971
  S    -2.262746  7.341094  3.331232
  S     0.786924  3.583487  0.484643
  S     0.639888  7.602513  0.328403
  S    -0.013942  3.566987  4.579572
  S     0.258018  7.603723  4.499371
