16  
    
  C     1.933911  4.313910  3.352876
  C     1.639993  7.757252  3.053348
  C     0.698565  4.126427  2.674373
  C     0.390117  7.589179  2.372644
  N     2.975622  4.371094  2.554958
  N     2.662913  7.960945  2.234496
  N     0.724904  4.127336  1.369692
  N     0.519706  7.683806  1.036169
  N     0.139529  3.954980  5.250620
  N     0.027179  7.410423  4.958551
  S    -0.562719  3.713724  3.794207
  S    -0.824778  7.162809  3.531597
  S     2.319762  4.467375  1.003009
  S     2.116899  7.836445  0.682852
  S     1.813801  4.289586  5.128880
  S     1.653010  7.656016  4.744333
