16  
    
  C    -1.740258  2.398321  2.048985
  C    -1.905906  6.504273  2.121301
  C    -3.030684  2.135359  1.432297
  C    -2.854717  5.547973  1.648839
  N    -0.774717  2.605216  1.144594
  N    -0.898062  6.748053  1.252733
  N    -2.997135  1.919039  0.100421
  N    -2.664128  5.125219  0.370506
  N    -3.425493  2.085092  3.985956
  N    -3.585394  6.164554  4.118518
  S    -4.338215  1.872140  2.619195
  S    -4.247588  5.383181  2.803719
  S    -1.417654  2.133213 -0.355910
  S    -1.315078  5.907231 -0.127594
  S    -1.828360  2.602668  3.727463
  S    -2.144464  6.968111  3.886945
