16  
    
  C     0.243250  3.704665  2.914764
  C     0.371693  7.482801  2.792376
  C    -0.904431  3.208241  2.117378
  C    -0.951262  7.495143  2.223507
  N     1.269243  3.918198  2.088099
  N     1.275593  7.616120  1.843556
  N    -0.737755  3.016388  0.821583
  N    -1.020751  7.560843  0.918027
  N    -1.556471  3.043677  4.624940
  N    -1.361338  7.479724  4.752112
  S    -2.225590  2.780943  3.144301
  S    -2.225963  7.384884  3.348581
  S     0.796997  3.657035  0.525508
  S     0.627712  7.562953  0.303270
  S     0.077964  3.504024  4.630709
  S     0.326032  7.602157  4.527656
