16  
    
  C    -4.136576  1.359706  1.950973
  C    -4.055633  5.099665  2.003767
  C    -5.411930  1.197688  1.220944
  C    -5.356886  4.722495  1.400046
  N    -3.097335  1.446201  1.135596
  N    -3.026337  4.993228  1.162260
  N    -5.290660  1.036317 -0.086768
  N    -5.285246  4.428121  0.111454
  N    -6.031594  1.430514  3.758175
  N    -5.711745  5.317934  3.860479
  S    -6.783588  1.145902  2.307218
  S    -6.604803  4.901768  2.521954
  S    -3.714734  1.193919 -0.436337
  S    -3.678458  4.522132 -0.262411
  S    -4.357604  1.581437  3.617277
  S    -4.121812  5.639491  3.626251
