16  
    
  C     3.110791  5.055554  3.445275
  C     3.314068  8.761505  3.723326
  C     1.851123  4.563028  2.880310
  C     1.948554  8.612995  3.227515
  N     4.140667  5.069815  2.613588
  N     4.204739  8.623115  2.806732
  N     1.951210  4.357251  1.563734
  N     1.798151  8.269907  1.945826
  N     1.450126  5.002371  5.430361
  N     1.820888  9.389106  5.685788
  S     0.543197  4.657263  4.096171
  S     0.792541  9.078514  4.483675
  S     3.556394  4.741373  1.132318
  S     3.465487  8.187969  1.376924
  S     3.024433  5.341337  5.140465
  S     3.407737  9.276330  5.399391
