16  
    
  C     1.150400  4.496672  3.068779
  C     1.719840  8.382231  2.948034
  C    -0.001570  3.919908  2.427316
  C     0.428504  8.157628  2.316999
  N     2.214743  4.600220  2.266133
  N     2.769566  8.312086  2.103374
  N     0.110168  3.934560  1.105059
  N     0.469636  7.990879  0.994271
  N    -0.644314  4.121106  4.847803
  N    -0.078453  8.357105  4.903738
  S    -1.403473  3.643729  3.375013
  S    -0.903503  8.036664  3.472314
  S     1.654946  4.416647  0.696994
  S     2.142703  7.987357  0.635405
  S     0.964726  4.420290  4.760804
  S     1.549523  8.688036  4.698126
