16  
    
  C    -1.677754  2.293418  1.943963
  C    -1.848821  6.526903  2.116735
  C    -2.988126  2.004302  1.306241
  C    -2.937213  5.830718  1.438108
  N    -0.716145  2.402793  1.054553
  N    -0.774948  6.570893  1.359675
  N    -2.965906  2.043548 -0.010173
  N    -2.626721  5.334724  0.256172
  N    -3.452278  2.361714  3.826229
  N    -3.528496  6.063301  4.007379
  S    -4.309244  1.802651  2.495953
  S    -4.285951  5.517662  2.625721
  S    -1.358790  2.245054 -0.443304
  S    -1.065033  5.920829 -0.186572
  S    -1.803237  2.460726  3.624047
  S    -2.128278  6.975418  3.741704
