16  
    
  C    -1.836420  2.358713  2.534190
  C    -1.800133  6.158330  2.296950
  C    -3.015435  1.975734  1.769160
  C    -3.037771  5.617372  1.748978
  N    -0.800790  2.541868  1.696856
  N    -0.782378  6.334833  1.390267
  N    -2.846292  1.720613  0.457318
  N    -3.036255  5.523070  0.397205
  N    -3.683403  2.120253  4.298041
  N    -3.404489  5.675763  4.279739
  S    -4.348332  1.643116  2.842125
  S    -4.274525  5.394400  2.929967
  S    -1.319583  2.248103  0.155290
  S    -1.489747  5.935517 -0.051800
  S    -2.105759  2.595468  4.199076
  S    -1.898518  6.302203  4.009963
