16  
    
  C    -0.784180  3.103208  2.451191
  C    -0.837935  6.593957  2.436204
  C    -2.063675  2.691710  1.823781
  C    -1.977140  6.068352  1.729567
  N     0.193174  3.236059  1.580788
  N     0.288467  6.563340  1.725852
  N    -1.996626  2.489306  0.530097
  N    -1.757532  5.766601  0.471909
  N    -2.445305  2.832974  4.351788
  N    -2.654595  6.356961  4.208130
  S    -3.391769  2.621811  3.026238
  S    -3.353468  5.912966  2.745990
  S    -0.430043  2.877948  0.074596
  S    -0.150450  6.204000  0.203749
  S    -0.894187  3.311118  4.144079
  S    -0.985628  6.625666  4.122215
