16  
    
  C    -0.758012  3.139398  2.684263
  C    -1.219939  6.497464  2.571822
  C    -1.960898  2.581114  2.029865
  C    -2.379936  5.980346  1.840512
  N     0.309660  3.184996  1.873356
  N    -0.297744  6.990527  1.727752
  N    -1.799293  2.247756  0.751882
  N    -2.243052  5.885670  0.518736
  N    -2.524616  3.043493  4.522460
  N    -3.148144  6.030162  4.331932
  S    -3.304981  2.693014  3.121886
  S    -3.792293  5.559755  2.891150
  S    -0.220585  2.653437  0.365990
  S    -0.765694  6.465965  0.204475
  S    -0.884541  3.298768  4.380087
  S    -1.573610  6.580700  4.316699
