16  
    
  C     2.169892  4.409614  2.929274
  C     2.117579  8.580292  3.050506
  C     0.877187  4.166475  2.288847
  C     0.983119  7.881869  2.500790
  N     3.207365  4.664272  2.102181
  N     3.185939  8.738829  2.268051
  N     0.961985  4.018459  0.979446
  N     1.206439  7.394715  1.285908
  N     0.349963  4.408582  4.826584
  N     0.406152  8.473774  4.929593
  S    -0.369514  3.791965  3.414348
  S    -0.386900  7.864082  3.625106
  S     2.567962  4.257374  0.583544
  S     2.778690  7.969853  0.817825
  S     1.976681  4.687770  4.738827
  S     1.971538  9.000669  4.725460
