16  
    
  C    -1.689666  2.675900  2.370833
  C    -1.667772  6.189200  2.399316
  C    -2.786341  2.088220  1.669900
  C    -2.866467  5.801390  1.720678
  N    -0.600142  2.717465  1.636021
  N    -0.592813  6.333318  1.626557
  N    -2.609248  1.839769  0.370359
  N    -2.754122  5.535307  0.427742
  N    -3.543410  2.413667  4.177579
  N    -3.479528  5.869302  4.278389
  S    -4.266419  2.154203  2.684919
  S    -4.191009  5.396136  2.843459
  S    -1.042283  2.292415  0.104375
  S    -1.156595  6.003985  0.067773
  S    -1.922239  2.835097  4.122614
  S    -1.905527  6.406939  4.104725
