16  
    
  C     0.946104  3.817636  2.532643
  C     1.559275  8.039235  3.269845
  C    -0.300939  3.549536  1.909101
  C     0.260309  7.866600  2.665242
  N     1.934590  3.997919  1.652671
  N     2.598162  8.119312  2.425768
  N    -0.182536  3.270047  0.609246
  N     0.266328  7.870187  1.338405
  N    -0.830302  3.549006  4.443957
  N    -0.166116  7.888111  5.173429
  S    -1.639370  3.183780  3.011930
  S    -1.061206  7.909325  3.777407
  S     1.334558  3.711591  0.170143
  S     1.910211  8.000863  0.970396
  S     0.699382  4.120705  4.200453
  S     1.466074  8.055976  5.013410
