16  
    
  C    -2.735647  2.656858  2.286612
  C    -2.693603  6.262133  1.979105
  C    -3.840910  1.871039  1.734454
  C    -3.847177  5.710971  1.288684
  N    -1.731440  2.918947  1.437557
  N    -1.725364  6.714702  1.201400
  N    -3.729909  1.743770  0.415395
  N    -3.612950  5.595624 -0.038483
  N    -4.404309  2.167727  4.247185
  N    -4.476356  5.550259  3.670603
  S    -5.065002  1.474287  2.858946
  S    -5.229836  5.288669  2.195970
  S    -2.278054  2.416267 -0.024109
  S    -2.035566  6.139109 -0.322007
  S    -2.888060  2.840886  4.034870
  S    -2.964150  6.329104  3.661669
