16  
    
  C     1.936350  4.485020  3.365151
  C     1.690784  7.678314  3.070872
  C     0.814274  3.949739  2.687797
  C     0.448722  7.443212  2.384211
  N     2.917326  4.804655  2.572546
  N     2.714152  7.893677  2.240423
  N     0.834707  3.971146  1.365310
  N     0.511780  7.394508  1.053567
  N     0.308275  4.008657  5.269415
  N    -0.186320  7.513399  4.874353
  S    -0.526302  3.707324  3.796268
  S    -0.940275  7.369643  3.372294
  S     2.405608  4.625836  0.971998
  S     2.092244  7.795544  0.715397
  S     1.913218  4.410386  5.054182
  S     1.488241  7.652503  4.808341
