16  
    
  C    -5.490768  1.012917  1.317294
  C    -5.324796  5.206346  1.462898
  C    -6.602353  0.527865  0.583698
  C    -6.418864  4.495563  0.812106
  N    -4.555253  1.434906  0.508562
  N    -4.338299  5.475850  0.654520
  N    -6.425551  0.480772 -0.724085
  N    -6.193236  4.283008 -0.437517
  N    -7.283210  0.608938  3.101522
  N    -6.973976  4.290222  3.254564
  S    -7.931152  0.075634  1.625028
  S    -7.659106  3.893176  1.792479
  S    -4.929928  1.090953 -1.051132
  S    -4.687015  4.833731 -0.846348
  S    -5.698689  1.129978  3.062701
  S    -5.582081  5.204986  3.149251
