16  
    
  C    -4.114972  1.382765  1.692670
  C    -4.161199  5.254945  1.919899
  C    -5.337542  1.187937  0.979710
  C    -5.383113  5.183501  1.221882
  N    -3.043688  1.228487  0.946023
  N    -3.052151  5.208072  1.178496
  N    -5.198424  1.148915 -0.352113
  N    -5.309234  5.080502 -0.110045
  N    -5.961810  1.541755  3.507261
  N    -5.885137  4.874978  3.845701
  S    -6.724800  1.319851  2.097154
  S    -6.707264  4.915034  2.413382
  S    -3.583441  1.137412 -0.637215
  S    -3.644280  5.173907 -0.428376
  S    -4.317207  1.673976  3.414956
  S    -4.276857  5.270801  3.700789
