16  
    
  C    -0.229992  3.144131  2.661378
  C    -0.173988  7.000209  2.392804
  C    -1.415150  2.502166  2.040684
  C    -1.356497  6.379762  1.672774
  N     0.721901  3.285862  1.737916
  N     0.853988  7.339394  1.622298
  N    -1.462748  2.591073  0.712559
  N    -1.104518  6.207562  0.376625
  N    -1.921271  2.865237  4.599189
  N    -1.881757  6.447362  4.195343
  S    -2.699576  2.317958  3.188568
  S    -2.630033  5.976454  2.781170
  S     0.097277  2.929194  0.242502
  S     0.374581  6.907298  0.084092
  S    -0.325523  3.464316  4.372140
  S    -0.355349  7.130061  4.047772
