16  
    
  C    -5.864986  0.819432  1.557898
  C    -6.102494  4.401587  1.702287
  C    -7.025421  0.157401  0.963069
  C    -7.240618  4.092415  0.935297
  N    -4.905090  1.224477  0.709896
  N    -5.031291  4.655131  0.954787
  N    -6.959966  0.038686 -0.357097
  N    -7.116487  4.049689 -0.394812
  N    -7.570243  0.396249  3.447512
  N    -7.916924  4.060506  3.400891
  S    -8.337066 -0.125518  2.069169
  S    -8.688916  3.962166  1.918473
  S    -5.536527  0.826067 -0.827395
  S    -5.492962  4.469554 -0.624512
  S    -6.021344  1.082486  3.263181
  S    -6.340952  4.702155  3.402305
