16  
    
  C    -1.792263  2.413831  2.399586
  C    -1.812773  6.237801  2.333439
  C    -2.975375  1.814448  1.750148
  C    -3.058757  5.745796  1.755521
  N    -0.775690  2.627196  1.538698
  N    -0.849260  6.353741  1.386804
  N    -2.882532  1.759801  0.417001
  N    -2.967962  5.429795  0.449120
  N    -3.629865  2.167739  4.171918
  N    -3.455750  5.828099  4.291818
  S    -4.398613  1.717141  2.790496
  S    -4.283571  5.299279  2.916295
  S    -1.312297  2.213174  0.019423
  S    -1.472971  5.922829 -0.132793
  S    -2.029268  2.590641  4.080672
  S    -1.958504  6.579275  4.029330
