16  
    
  C    -0.366008  3.436204  2.608889
  C    -0.340132  6.902948  2.371156
  C    -1.663045  3.021088  2.037313
  C    -1.593663  6.498399  1.837101
  N     0.630370  3.409570  1.725492
  N     0.558568  7.204722  1.472096
  N    -1.635304  3.057961  0.705902
  N    -1.682736  6.384003  0.536185
  N    -1.988380  3.214008  4.545971
  N    -1.992129  6.694374  4.318266
  S    -2.933278  2.923744  3.211688
  S    -2.820093  6.232149  2.934130
  S    -0.052937  3.211516  0.225088
  S    -0.124882  6.731846  0.015492
  S    -0.405392  3.585656  4.323930
  S    -0.395941  7.132004  4.122917
