16  
    
  C    -5.495990  1.136594  1.313379
  C    -5.252166  5.195186  1.393038
  C    -6.635803  0.583067  0.614237
  C    -6.362784  4.453968  0.710201
  N    -4.461279  1.421351  0.532476
  N    -4.278420  5.546905  0.588601
  N    -6.508004  0.455665 -0.683390
  N    -6.147357  4.201680 -0.570864
  N    -7.344326  0.666801  3.080575
  N    -6.912186  4.464149  3.260173
  S    -7.948264  0.011226  1.679403
  S    -7.498993  3.768455  1.845821
  S    -4.964486  0.999093 -0.997489
  S    -4.656057  4.869000 -0.902558
  S    -5.702441  1.108244  3.035923
  S    -5.434717  5.244654  3.152081
