16  
    
  C     0.890527  3.933716  2.498109
  C     1.512741  8.098090  3.324568
  C    -0.329822  3.299371  1.865539
  C     0.237388  7.917459  2.673212
  N     1.952328  4.054706  1.692809
  N     2.504274  8.189158  2.482299
  N    -0.282874  3.276783  0.542887
  N     0.330135  7.869881  1.351689
  N    -0.856715  3.582222  4.429417
  N    -0.207384  7.962465  5.192130
  S    -1.624597  3.193525  3.015586
  S    -1.059236  7.945230  3.761106
  S     1.322805  3.674252  0.139523
  S     1.918609  8.075506  0.907492
  S     0.757699  4.177327  4.254875
  S     1.498637  8.086298  4.997745
