16  
    
  C    -2.408396  2.249559  2.126491
  C    -2.602025  5.666853  2.113874
  C    -3.643000  2.000809  1.478144
  C    -3.811271  5.211747  1.488944
  N    -1.400671  2.262326  1.278843
  N    -1.609097  5.812524  1.195110
  N    -3.655027  1.860416  0.156779
  N    -3.772906  5.069108  0.171868
  N    -4.167037  2.029043  4.051425
  N    -4.370901  5.327191  4.007477
  S    -4.976296  1.894875  2.606857
  S    -5.172222  4.963191  2.560417
  S    -2.013419  1.947322 -0.232562
  S    -2.240127  5.640811 -0.294328
  S    -2.538863  2.335173  3.896580
  S    -2.780429  5.711885  3.840700
