16  
    
  C     0.589082  3.740241  2.724665
  C     0.639423  7.642705  2.722507
  C    -0.641091  3.358386  2.142541
  C    -0.564878  7.012287  2.223915
  N     1.593066  3.848467  1.837258
  N     1.499795  7.936280  1.766192
  N    -0.613776  3.251231  0.813538
  N    -0.539987  6.754941  0.942434
  N    -0.969872  3.361121  4.722581
  N    -1.044445  7.342034  4.644945
  S    -1.881814  3.192507  3.388506
  S    -1.741988  6.633968  3.314906
  S     0.900308  3.745673  0.386209
  S     0.917382  7.343359  0.371495
  S     0.691889  3.535857  4.475398
  S     0.484665  7.972675  4.422768
