16  
    
  C    -3.399774  1.500838  2.120060
  C    -3.254344  5.473570  2.027639
  C    -4.628413  1.225128  1.472584
  C    -4.480250  5.064471  1.401111
  N    -2.314625  1.560559  1.349335
  N    -2.178400  5.447593  1.251627
  N    -4.552981  0.954467  0.176951
  N    -4.341794  4.806631  0.073468
  N    -5.267463  1.478018  3.931526
  N    -4.949337  5.321453  3.982081
  S    -6.015834  1.184662  2.492437
  S    -5.796531  4.954364  2.577690
  S    -2.946137  1.108132 -0.175536
  S    -2.771660  5.082305 -0.300650
  S    -3.651117  1.801972  3.792857
  S    -3.313249  5.680703  3.827346
