16  
    
  C     0.615141  3.793201  3.199701
  C     1.067008  7.540732  2.726410
  C    -0.401309  3.106704  2.328383
  C    -0.122530  7.059596  1.996135
  N     1.663671  4.205862  2.493607
  N     2.135767  7.786017  2.005962
  N    -0.285772  3.279761  1.035587
  N     0.115755  6.871641  0.700421
  N    -1.301818  3.013683  4.788388
  N    -0.654371  7.063883  4.488602
  S    -1.854407  2.736263  3.252174
  S    -1.403103  6.618013  3.096698
  S     1.297176  3.848333  0.838067
  S     1.665838  7.380182  0.434866
  S     0.202506  3.728808  4.881995
  S     0.875343  7.737896  4.404006
