16  
    
  C     2.554946  5.049834  3.588916
  C     2.195283  8.813283  3.410984
  C     1.457579  4.241341  3.093303
  C     1.231056  7.937433  2.815641
  N     3.497168  5.249591  2.701445
  N     3.236662  9.064293  2.643406
  N     1.476162  4.044160  1.787725
  N     1.537350  7.512425  1.576443
  N     0.913505  4.813653  5.536786
  N     0.538124  8.316120  5.216943
  S     0.130536  4.234780  4.224597
  S    -0.094341  7.585417  3.903540
  S     2.955814  4.640934  1.238687
  S     2.983292  8.309946  1.151522
  S     2.498554  5.335165  5.271339
  S     1.970473  9.127163  5.075583
