16  
    
  C    -2.736597  2.650239  2.309284
  C    -2.706490  6.178207  1.993793
  C    -3.839979  1.987897  1.721107
  C    -3.823008  5.636055  1.186323
  N    -1.735224  2.969171  1.494287
  N    -1.735307  6.578292  1.209878
  N    -3.717175  1.747093  0.433832
  N    -3.655866  5.581138 -0.087418
  N    -4.397733  2.144369  4.223234
  N    -4.430325  5.499469  3.683894
  S    -5.066442  1.413507  2.905568
  S    -5.227599  5.264767  2.223708
  S    -2.267017  2.421031 -0.033249
  S    -2.061569  6.156264 -0.307080
  S    -2.891941  2.816245  4.034175
  S    -2.984074  6.289886  3.668286
