16  
    
  C    -1.881824  2.460294  2.612894
  C    -1.791347  5.907563  2.323591
  C    -3.039257  1.930063  1.878073
  C    -3.075650  5.576917  1.676261
  N    -0.816691  2.646059  1.815370
  N    -0.851447  6.305079  1.440830
  N    -2.886700  1.895017  0.550295
  N    -2.977222  5.522721  0.334048
  N    -3.694338  2.084800  4.322704
  N    -3.414158  5.655055  4.246700
  S    -4.430051  1.608141  2.908833
  S    -4.328322  5.467206  2.851753
  S    -1.286344  2.214273  0.262280
  S    -1.443250  5.979114 -0.035829
  S    -2.109814  2.548638  4.283527
  S    -1.748601  6.051805  4.061212
