16  
    
  C     1.236604  4.473502  3.131349
  C     1.625860  8.009443  3.080469
  C    -0.046120  4.060157  2.614767
  C     0.354592  7.929205  2.447491
  N     2.248007  4.658361  2.305166
  N     2.644090  7.987997  2.256548
  N    -0.086172  4.071760  1.272641
  N     0.459521  7.681704  1.162107
  N    -0.346604  4.169312  5.175654
  N    -0.205961  8.198713  4.890388
  S    -1.263024  3.831876  3.842934
  S    -0.990618  8.197438  3.423723
  S     1.492205  4.410505  0.777251
  S     2.052586  7.768632  0.709925
  S     1.223126  4.624369  4.874846
  S     1.475386  8.271780  4.775073
