16  
    
  C    -5.901360  0.796699  1.549014
  C    -6.070528  4.388076  1.718699
  C    -7.064672  0.193009  0.919076
  C    -7.338340  4.077253  0.941464
  N    -5.040467  1.253636  0.652290
  N    -4.968597  4.659979  1.009454
  N    -7.014463  0.036553 -0.413848
  N    -7.073440  4.026186 -0.373725
  N    -7.493037  0.296737  3.509142
  N    -7.991099  4.100259  3.487742
  S    -8.357229 -0.190212  2.061033
  S    -8.715573  3.904341  1.998445
  S    -5.632700  0.817378 -0.823989
  S    -5.493844  4.466300 -0.545341
  S    -6.011799  1.100373  3.259276
  S    -6.409108  4.626723  3.391640
