16  
    
  C    -6.051266  0.796838  1.368070
  C    -6.085322  4.361819  1.733743
  C    -7.210722  0.169907  0.713703
  C    -7.180757  3.851682  1.023858
  N    -5.125320  1.205004  0.493058
  N    -5.033808  4.723053  1.015002
  N    -7.223618  0.183624 -0.624372
  N    -7.119750  3.891850 -0.295679
  N    -7.653712  0.259996  3.290767
  N    -7.754630  3.637553  3.541928
  S    -8.540282 -0.124878  1.923349
  S    -8.518907  3.444290  2.082157
  S    -5.809281  0.960298 -1.034087
  S    -5.567153  4.456090 -0.537452
  S    -6.137397  0.839559  3.127822
  S    -6.294210  4.441842  3.483488
