16  
    
  C    -3.578092  2.021477  1.645244
  C    -4.002894  5.230123  1.636851
  C    -4.811596  1.521144  1.091673
  C    -5.185215  4.718412  1.011692
  N    -2.565987  2.321105  0.865767
  N    -3.011265  5.393927  0.761627
  N    -4.722200  1.347960 -0.199164
  N    -5.055843  4.373574 -0.262520
  N    -5.127666  1.382642  3.562775
  N    -5.609603  5.041401  3.562674
  S    -6.002843  1.005061  2.194824
  S    -6.404948  4.416004  2.232601
  S    -3.186777  1.797320 -0.658060
  S    -3.528190  4.947426 -0.675511
  S    -3.648618  2.162638  3.408182
  S    -4.079899  5.555731  3.351757
