16  
    
  C    -3.315234  1.623695  2.069035
  C    -3.147739  5.434491  2.057837
  C    -4.589734  1.266140  1.534691
  C    -4.343159  4.998599  1.378160
  N    -2.404994  1.796723  1.115342
  N    -2.070692  5.542898  1.278211
  N    -4.660832  1.248451  0.211051
  N    -4.103509  4.696413  0.077538
  N    -4.973192  1.546638  4.029463
  N    -4.922314  5.082960  3.923395
  S    -5.832728  1.116378  2.684537
  S    -5.671051  4.795382  2.497239
  S    -3.130265  1.551259 -0.293809
  S    -2.510957  5.181073 -0.281948
  S    -3.374917  1.777548  3.714408
  S    -3.357299  5.768961  3.781567
