16  
    
  C     0.584979  3.690650  2.950192
  C     0.923980  7.560801  2.636995
  C    -0.558378  3.109814  2.169735
  C    -0.299080  7.055154  1.942022
  N     1.570775  4.240032  2.226214
  N     1.908325  8.070108  1.867329
  N    -0.221385  2.899397  0.906985
  N    -0.216171  7.157475  0.616828
  N    -1.499504  3.153755  4.483562
  N    -0.702413  6.869832  4.495477
  S    -1.956775  2.572796  3.054050
  S    -1.522925  6.458297  3.073447
  S     1.275829  3.664520  0.618557
  S     1.278946  7.818506  0.331037
  S     0.070019  3.749142  4.593116
  S     0.876238  7.513368  4.336280
