16  
    
  C     2.355557  4.688738  3.396116
  C     2.547694  8.648158  3.502976
  C     1.189765  4.275026  2.674744
  C     1.269236  8.284931  2.951192
  N     3.344597  5.131048  2.675400
  N     3.506173  8.821626  2.603321
  N     1.456154  4.106596  1.398547
  N     1.288376  8.206651  1.646546
  N     0.629916  4.267928  5.144710
  N     0.841729  8.625771  5.476263
  S    -0.094546  3.953034  3.711335
  S     0.031690  8.103914  4.101786
  S     2.955499  4.751828  1.111680
  S     2.806559  8.535751  1.085645
  S     2.190942  4.787217  5.092637
  S     2.458876  8.912005  5.208453
