16  
    
  C     2.029698  4.619509  3.281034
  C     1.621255  7.910844  3.061899
  C     0.834008  4.010388  2.689506
  C     0.427108  7.483667  2.345273
  N     3.046229  4.609723  2.423494
  N     2.676033  8.161849  2.268805
  N     0.892617  3.951850  1.342024
  N     0.484752  7.447889  0.997989
  N     0.282952  4.266128  5.217920
  N    -0.315088  7.636578  4.817811
  S    -0.475545  3.716893  3.847559
  S    -0.938187  7.049793  3.343449
  S     2.474409  4.344677  0.905181
  S     2.095977  7.809376  0.749930
  S     1.847505  4.932020  4.933451
  S     1.271362  8.109608  4.773149
