16  
    
  C     1.503537  4.286445  3.473015
  C     1.428464  7.996536  3.100805
  C     0.166095  4.172068  2.927465
  C     0.190454  7.740967  2.406671
  N     2.361604  4.464300  2.502992
  N     2.496879  7.982546  2.282648
  N     0.059871  4.002029  1.616669
  N     0.205110  7.653235  1.051481
  N    -0.064050  4.676530  5.414891
  N    -0.444944  7.871130  4.910026
  S    -0.989492  4.181815  4.168209
  S    -1.178223  7.477523  3.484996
  S     1.667853  4.190958  1.037349
  S     1.868317  7.857229  0.767926
  S     1.511392  4.819512  5.118221
  S     1.169431  8.186375  4.862275
