16  
    
  C    -1.159974  3.110960  2.181421
  C    -1.064448  6.803604  2.547258
  C    -2.479757  2.873689  1.673542
  C    -2.312411  6.554593  1.919222
  N    -0.200235  3.297007  1.279496
  N    -0.093282  6.981258  1.684836
  N    -2.492730  2.584027  0.388237
  N    -2.319071  6.681322  0.619416
  N    -2.757562  2.973300  4.237843
  N    -2.761749  6.886323  4.485943
  S    -3.708591  2.664337  2.903530
  S    -3.625869  6.544110  3.050819
  S    -0.979663  3.037750 -0.180692
  S    -0.726829  6.996289  0.180513
  S    -1.150328  3.322274  3.924975
  S    -1.143781  7.108220  4.194870
