16  
    
  C     3.113328  4.973682  3.489676
  C     3.421156  8.926838  3.675831
  C     1.910516  4.528756  2.920103
  C     2.052481  8.738861  3.253029
  N     4.153009  5.101896  2.663657
  N     4.338621  8.558748  2.731258
  N     1.956364  4.424768  1.604578
  N     1.959320  8.294760  2.004571
  N     1.433815  4.997266  5.416905
  N     1.777909  9.387147  5.726050
  S     0.585060  4.695698  4.047899
  S     0.829730  9.061198  4.347759
  S     3.512118  4.712195  1.182878
  S     3.417712  8.216842  1.401567
  S     3.037590  5.374190  5.143755
  S     3.420386  9.200776  5.431804
