16  
    
  C     2.985694  5.240294  3.371383
  C     3.583859  9.049599  3.325300
  C     1.851986  4.638874  2.718273
  C     2.247088  8.647955  2.857693
  N     4.028434  5.504379  2.607928
  N     4.542296  9.125474  2.428631
  N     2.040545  4.444000  1.437055
  N     2.233330  8.299654  1.595135
  N     1.327851  4.778336  5.255459
  N     1.956696  9.011332  5.433795
  S     0.562017  4.315172  3.862329
  S     1.043209  8.585281  4.093520
  S     3.636911  4.931173  1.120391
  S     3.781157  8.711752  0.964571
  S     2.807532  5.541402  5.049801
  S     3.540971  9.326922  5.104643
