16  
    
  C    -0.183056  3.197783  2.613620
  C    -0.105991  7.008941  2.490934
  C    -1.298674  2.608660  1.936910
  C    -1.290474  6.610193  1.784402
  N     0.707311  3.764100  1.790154
  N     0.949920  7.240904  1.737126
  N    -1.093216  2.262545  0.668415
  N    -1.215992  6.656550  0.469046
  N    -1.925892  2.832382  4.426123
  N    -1.858367  6.508374  4.280050
  S    -2.624119  2.283883  3.065184
  S    -2.571664  6.043664  2.845010
  S     0.408434  2.988630  0.322690
  S     0.350346  7.175122  0.150917
  S    -0.384588  3.494087  4.337478
  S    -0.212965  6.924300  4.169565
