16  
    
  C     0.591294  3.773318  3.091360
  C     1.043731  7.552843  2.707286
  C    -0.427459  3.134682  2.364403
  C    -0.093742  6.986681  2.038296
  N     1.679359  4.203310  2.427778
  N     2.054542  7.830668  1.895643
  N    -0.164340  3.212679  1.040863
  N     0.091750  6.943948  0.742954
  N    -1.366171  3.007295  4.706580
  N    -0.660832  7.003640  4.517409
  S    -1.895192  2.628571  3.211665
  S    -1.423070  6.576330  3.065765
  S     1.304505  3.858258  0.850656
  S     1.615076  7.474251  0.350200
  S     0.130906  3.762484  4.790535
  S     0.874294  7.661614  4.409661
