16  
    
  C    -5.372590  1.198126  1.433607
  C    -5.325627  4.548454  1.568591
  C    -6.648293  0.902993  0.756421
  C    -6.627300  4.208633  1.091392
  N    -4.298656  1.261819  0.612195
  N    -4.402924  4.775040  0.631973
  N    -6.541626  0.609653 -0.546404
  N    -6.683219  3.961231 -0.222312
  N    -7.114153  1.056407  3.392085
  N    -6.931690  4.753616  3.570271
  S    -7.877587  0.704229  1.931042
  S    -7.842722  4.087101  2.334521
  S    -4.890855  0.738390 -0.869251
  S    -5.173963  4.338736 -0.780647
  S    -5.447721  1.347438  3.160970
  S    -5.264001  4.714878  3.303813
