16  
    
  C    -0.225390  3.018008  2.597089
  C    -0.248144  7.000560  2.329165
  C    -1.504402  2.630798  2.067445
  C    -1.273389  6.292280  1.719718
  N     0.757227  3.327510  1.749754
  N     0.783755  7.382713  1.578141
  N    -1.468086  2.510039  0.734511
  N    -1.126138  6.177691  0.393985
  N    -1.907061  2.873233  4.581939
  N    -1.936714  6.514604  4.249452
  S    -2.743026  2.361745  3.253660
  S    -2.618094  5.974597  2.837580
  S     0.070970  2.963809  0.245088
  S     0.396022  6.816526  0.012061
  S    -0.310477  3.412032  4.330030
  S    -0.404759  7.169684  4.077575
