16  
    
  C    -3.331807  1.797377  2.034419
  C    -3.082276  5.440347  2.088838
  C    -4.605135  1.487572  1.447317
  C    -4.226229  4.886211  1.434700
  N    -2.438137  2.024881  1.076314
  N    -2.086868  5.698802  1.267624
  N    -4.612954  1.293933  0.129288
  N    -4.115412  4.711457  0.141702
  N    -4.911743  1.339506  4.083570
  N    -4.964391  5.212227  3.854016
  S    -5.809375  1.054229  2.687878
  S    -5.579193  4.557579  2.440981
  S    -3.112296  1.740011 -0.416822
  S    -2.500627  5.121489 -0.195748
  S    -3.303260  1.893639  3.817338
  S    -3.335628  5.802669  3.774144
