16  
    
  C     0.947282  3.971677  2.584201
  C     1.503643  7.843247  3.284074
  C    -0.264475  3.568444  1.822464
  C     0.196568  7.794415  2.616611
  N     1.993143  4.206366  1.825665
  N     2.557124  7.884598  2.459066
  N    -0.034414  3.304744  0.550629
  N     0.275043  7.747715  1.275381
  N    -0.959709  3.664045  4.304648
  N    -0.243142  7.880194  5.124005
  S    -1.630370  3.190877  2.897426
  S    -1.104932  7.745329  3.759276
  S     1.540646  3.766162  0.239524
  S     1.859287  7.811918  0.927987
  S     0.651188  4.056820  4.275673
  S     1.398036  8.025803  4.976122
