16  
    
  C    -0.046586  3.312489  2.577312
  C     0.012190  7.139812  2.670365
  C    -1.098577  2.581270  1.858389
  C    -1.207719  6.675025  1.969009
  N     0.947500  3.666566  1.749301
  N     0.964954  7.434024  1.778028
  N    -0.958982  2.636301  0.531063
  N    -1.093716  6.581366  0.658462
  N    -1.845717  2.957397  4.324629
  N    -1.778840  6.516741  4.499410
  S    -2.439689  2.296435  2.874561
  S    -2.566201  6.403834  3.015961
  S     0.576438  3.195550  0.229559
  S     0.367028  7.209402  0.279118
  S    -0.287251  3.525392  4.272946
  S    -0.199906  7.030879  4.400664
