16  
    
  C    -0.025874  3.258209  2.570107
  C     0.018857  7.138355  2.646181
  C    -1.086104  2.621532  1.877377
  C    -1.192410  6.629258  1.946681
  N     0.911875  3.703597  1.765978
  N     0.988041  7.452459  1.774424
  N    -0.945285  2.548331  0.546877
  N    -1.120289  6.609191  0.604087
  N    -1.837130  2.946300  4.322121
  N    -1.787473  6.500414  4.516338
  S    -2.466710  2.293664  2.880267
  S    -2.566253  6.382168  3.016824
  S     0.554020  3.179930  0.233580
  S     0.359920  7.206087  0.247836
  S    -0.316278  3.528098  4.306784
  S    -0.222361  6.999170  4.392391
