16  
    
  C     0.846201  3.991966  2.502505
  C     1.510621  8.372799  3.160900
  C    -0.320009  3.518345  1.848637
  C     0.224715  8.180946  2.542141
  N     1.809504  4.381544  1.631229
  N     2.542388  8.467480  2.335743
  N    -0.102008  3.169844  0.582041
  N     0.262541  8.141329  1.212054
  N    -0.914503  3.748162  4.331003
  N    -0.191016  8.173877  5.039839
  S    -1.565518  3.132401  2.977350
  S    -1.077202  7.983232  3.662522
  S     1.468594  3.689681  0.196343
  S     1.927225  8.383635  0.848465
  S     0.699009  4.290360  4.255313
  S     1.437412  8.508718  4.927289
