16  
    
  C     0.305818  3.506720  2.862406
  C     0.400043  7.619513  2.788342
  C    -0.933304  3.293220  2.172532
  C    -0.928744  7.471106  2.231236
  N     1.317093  3.982373  2.127766
  N     1.394860  7.673817  1.875228
  N    -0.733434  3.225101  0.824901
  N    -0.987431  7.537262  0.907589
  N    -1.490820  3.090934  4.705094
  N    -1.257316  7.516677  4.749100
  S    -2.215311  2.813189  3.213388
  S    -2.210744  7.429676  3.405184
  S     0.808337  3.697280  0.577276
  S     0.522017  7.542324  0.408247
  S     0.139155  3.458280  4.641002
  S     0.390499  7.573048  4.555421
