16  
    
  C     0.518355  3.762680  2.936326
  C     0.567592  7.505242  2.885541
  C    -0.753904  3.393163  2.395926
  C    -0.566923  7.076562  2.098032
  N     1.520155  3.753064  2.042811
  N     1.666843  7.691258  2.186142
  N    -0.808748  3.576015  1.043206
  N    -0.263068  6.839735  0.830735
  N    -1.068199  3.607763  4.944007
  N    -1.395937  7.272935  4.544224
  S    -2.057369  3.287952  3.614833
  S    -2.036698  7.016227  3.074148
  S     0.752924  3.600873  0.572592
  S     1.321121  7.240322  0.588308
  S     0.518085  3.876716  4.650070
  S     0.193417  7.693397  4.544745
