16  
    
  C    -4.009127  1.514161  1.711000
  C    -3.959074  5.127979  1.957467
  C    -5.291538  1.296806  1.019236
  C    -5.291278  5.025614  1.246634
  N    -2.982766  1.453191  0.883537
  N    -2.914672  5.470517  1.173132
  N    -5.171253  1.111485 -0.286209
  N    -5.181023  5.196849 -0.041748
  N    -5.758127  1.597188  3.464651
  N    -5.879670  4.917684  3.653970
  S    -6.629443  1.337435  2.096766
  S    -6.704718  4.873665  2.206156
  S    -3.584614  1.149669 -0.611136
  S    -3.616233  5.543918 -0.404062
  S    -4.082154  1.668096  3.404547
  S    -4.218063  5.191814  3.674477
