16  
    
  C    -4.394755  1.439337  1.947098
  C    -4.663632  4.747445  1.643656
  C    -5.596692  0.841634  1.333548
  C    -5.770731  4.370592  0.798261
  N    -3.498088  1.806342  1.045160
  N    -3.621434  5.239370  0.977962
  N    -5.582282  0.756519 -0.006148
  N    -5.506027  4.490261 -0.525860
  N    -6.081231  0.840185  3.846589
  N    -6.435834  3.851712  3.330039
  S    -6.837069  0.244299  2.462639
  S    -7.138487  3.748342  1.792774
  S    -4.024094  1.380812 -0.492732
  S    -3.927679  5.040019 -0.620139
  S    -4.476775  1.243053  3.646304
  S    -4.922057  4.675473  3.393495
