16  
    
  C    -1.507091  2.937750  2.003793
  C    -1.116331  6.853169  2.241602
  C    -2.588146  2.276638  1.344738
  C    -2.366499  6.409144  1.702044
  N    -0.458531  3.165252  1.238398
  N    -0.155990  7.049068  1.380109
  N    -2.414004  1.999760  0.057433
  N    -2.361342  6.310052  0.375107
  N    -3.306172  2.450474  3.812269
  N    -2.702650  6.961678  4.224127
  S    -3.878388  1.686415  2.447319
  S    -3.622392  6.520301  2.904613
  S    -0.923231  2.670084 -0.285158
  S    -0.808566  6.644067 -0.111870
  S    -1.917109  3.327199  3.637028
  S    -1.068065  7.137584  3.999951
