16  
    
  C    -4.868447  1.234451  1.546887
  C    -4.725393  4.864836  1.894397
  C    -6.002834  0.669269  0.815975
  C    -5.895395  4.294906  1.256035
  N    -3.803725  1.442045  0.759914
  N    -3.647722  5.048133  1.106687
  N    -5.794634  0.317681 -0.455180
  N    -5.664181  3.889707  0.007584
  N    -6.581337  0.770913  3.373656
  N    -6.416866  4.361913  3.810583
  S    -7.243515  0.248528  1.933014
  S    -7.215487  3.949803  2.423645
  S    -4.243060  0.861711 -0.735955
  S    -4.125644  4.336319 -0.313760
  S    -4.995471  1.307656  3.275724
  S    -4.907321  5.042878  3.599848
