16  
    
  C     2.906391  5.314557  3.617277
  C     2.913018  8.765508  3.476517
  C     1.717733  4.966414  2.887151
  C     1.770851  8.331354  2.675773
  N     3.994146  5.357418  2.858530
  N     3.992265  9.008464  2.768354
  N     1.872750  4.827418  1.565723
  N     1.993690  8.140178  1.384038
  N     1.161139  4.700817  5.360389
  N     1.010560  8.689927  5.237257
  S     0.331840  4.844091  3.942880
  S     0.380842  8.086738  3.755370
  S     3.507261  5.165070  1.294866
  S     3.677201  8.518223  1.245380
  S     2.681600  5.312888  5.360554
  S     2.676397  8.811902  5.145305
