16  
    
  C    -3.176272  1.938206  1.748893
  C    -3.113191  5.745717  2.086512
  C    -4.234555  1.230624  1.039512
  C    -4.367506  5.389956  1.472387
  N    -2.045453  2.234245  1.050431
  N    -2.218489  6.092995  1.122166
  N    -3.960008  1.148547 -0.272878
  N    -4.439740  5.377380  0.136264
  N    -5.138887  1.595427  3.514180
  N    -4.758968  5.381496  4.025698
  S    -5.682968  1.163718  2.039401
  S    -5.639191  5.161752  2.612215
  S    -2.468246  1.812371 -0.527300
  S    -2.860100  5.764895 -0.345519
  S    -3.573333  2.161651  3.451666
  S    -3.135367  5.861129  3.860915
