16  
    
  C     0.891366  4.096871  2.556524
  C     1.484456  8.485996  3.176126
  C    -0.240852  3.434519  1.842555
  C     0.245552  8.194546  2.510506
  N     1.917584  4.394781  1.768904
  N     2.505783  8.501918  2.354947
  N    -0.110549  3.255379  0.513472
  N     0.362224  8.184758  1.177804
  N    -0.895518  3.733986  4.399693
  N    -0.179304  8.131968  5.067592
  S    -1.557321  3.144021  2.934469
  S    -1.044628  7.994173  3.665684
  S     1.476695  3.763057  0.235882
  S     1.947340  8.435401  0.748431
  S     0.656735  4.336345  4.242375
  S     1.418010  8.625130  4.866523
