16  
    
  C    -5.052645  1.174908  1.751389
  C    -4.882065  4.756470  1.628670
  C    -6.137932  0.442670  1.124315
  C    -6.002272  4.080167  0.983160
  N    -3.923321  1.258231  0.994801
  N    -3.822859  5.024296  0.860272
  N    -5.909482  0.242011 -0.190752
  N    -5.742515  3.916748 -0.318663
  N    -6.835324  0.944246  3.564092
  N    -6.749317  4.634716  3.387026
  S    -7.459029  0.132350  2.201725
  S    -7.425988  3.912944  2.041128
  S    -4.407504  0.768831 -0.495876
  S    -4.290383  4.637465 -0.678121
  S    -5.244555  1.508548  3.445949
  S    -5.223614  5.229249  3.261897
