16  
    
  C     2.613327  5.114149  3.630391
  C     2.287238  8.829651  3.451544
  C     1.417272  4.530669  3.113342
  C     1.313175  7.967379  2.837064
  N     3.606221  5.148307  2.747609
  N     3.263298  9.144174  2.569096
  N     1.513330  4.205951  1.826342
  N     1.560245  7.569791  1.597575
  N     0.968454  4.954305  5.674983
  N     0.464461  8.158527  5.216519
  S     0.226384  4.169682  4.386861
  S    -0.114610  7.575865  3.720897
  S     3.067176  4.579019  1.314668
  S     2.985087  8.271521  1.187050
  S     2.583069  5.497870  5.295032
  S     1.847756  9.066516  5.124157
