16  
    
  C     2.139034  4.757189  3.188127
  C     1.976170  8.933163  3.404091
  C     0.902915  4.545581  2.514178
  C     0.793718  8.456224  2.726097
  N     3.053879  5.201719  2.323224
  N     3.028206  9.153826  2.573988
  N     1.008248  4.400838  1.191917
  N     1.020571  8.195028  1.429147
  N     0.432821  4.346916  5.078823
  N     0.255239  8.548847  5.286089
  S    -0.329949  4.078169  3.547084
  S    -0.529406  8.262379  3.831246
  S     2.513160  4.916060  0.791775
  S     2.588975  8.599054  1.117587
  S     2.086075  4.690133  4.915948
  S     1.883296  8.950090  5.096328
