16  
    
  C     0.242861  3.357900  2.377062
  C     0.137371  7.342961  2.855891
  C    -1.046280  3.044671  1.710111
  C    -1.074522  6.820850  2.191325
  N     1.162141  3.691297  1.511265
  N     1.197282  7.343057  2.036206
  N    -0.932858  2.934537  0.408282
  N    -0.949939  6.657741  0.859821
  N    -1.502227  2.830918  4.182759
  N    -1.774158  7.116176  4.599695
  S    -2.357695  2.706937  2.789594
  S    -2.397289  6.465597  3.185733
  S     0.586745  3.440967 -0.007532
  S     0.597848  7.033433  0.550769
  S     0.020192  3.428356  4.073110
  S    -0.135797  7.600357  4.581185
