16  
    
  C    -1.808777  2.372179  2.282601
  C    -1.890988  6.260346  2.262550
  C    -3.012582  1.918026  1.650926
  C    -3.026271  5.576448  1.697790
  N    -0.818269  2.687181  1.444548
  N    -0.905682  6.475719  1.423085
  N    -2.873775  1.735164  0.349316
  N    -3.014229  5.443714  0.393382
  N    -3.573549  2.188524  4.141417
  N    -3.487373  5.983013  4.206041
  S    -4.389121  1.761683  2.734849
  S    -4.224882  5.289877  2.888969
  S    -1.339736  2.183663 -0.036503
  S    -1.453986  5.898359 -0.039393
  S    -1.964456  2.591121  4.014723
  S    -1.984764  6.704496  3.996265
