16  
    
  C    -3.184596  1.984427  1.893001
  C    -3.224032  5.718928  2.088308
  C    -4.284952  1.461305  1.131580
  C    -4.408709  5.232167  1.471708
  N    -2.026486  2.058008  1.195250
  N    -2.220182  6.057844  1.240052
  N    -4.091661  1.344379 -0.201690
  N    -4.319530  5.064831  0.156361
  N    -5.168716  1.761586  3.547352
  N    -4.836979  5.321343  4.001223
  S    -5.729528  1.145671  2.108733
  S    -5.633612  4.901458  2.624111
  S    -2.490981  1.569469 -0.364247
  S    -2.800922  5.683573 -0.226337
  S    -3.529140  2.034921  3.560722
  S    -3.192867  5.804724  3.824025
