16  
    
  C     0.889748  3.736528  3.066876
  C     1.162752  7.559603  2.952116
  C    -0.397060  3.454484  2.536122
  C     0.017908  7.043509  2.283102
  N     1.843139  3.815441  2.143261
  N     2.215297  7.726310  2.160056
  N    -0.363499  3.206762  1.224206
  N     0.196090  6.699021  1.014857
  N    -0.843549  3.419379  5.033983
  N    -0.749915  7.700659  4.690446
  S    -1.720923  3.253780  3.644290
  S    -1.472711  6.982749  3.357322
  S     1.138909  3.589000  0.713252
  S     1.799824  7.114199  0.704230
  S     0.788032  3.886389  4.803397
  S     0.873069  7.958722  4.650171
