16  
    
  C     3.091029  5.164591  3.425888
  C     3.416611  9.083799  3.501912
  C     2.001775  4.435703  2.734765
  C     2.123734  8.696365  2.994961
  N     4.045917  5.505058  2.564801
  N     4.382834  9.016124  2.585223
  N     2.140187  4.321773  1.444030
  N     2.063804  8.418730  1.727902
  N     1.146867  5.005697  5.088517
  N     1.611122  8.808681  5.475892
  S     0.604045  4.159903  3.755060
  S     0.770989  8.606089  4.063803
  S     3.662958  4.973211  1.093962
  S     3.583160  8.715587  1.096624
  S     2.776937  5.418687  5.136420
  S     3.218385  9.286031  5.300692
