16  
    
  C    -0.480735  3.265909  2.907493
  C    -1.185872  6.730997  2.653593
  C    -1.734681  2.733830  2.271688
  C    -2.262199  6.254572  1.838712
  N     0.567166  3.251243  2.109495
  N    -0.046543  7.023171  2.009550
  N    -1.647830  2.694215  0.944250
  N    -1.927842  6.127488  0.540820
  N    -2.334313  3.309262  4.654290
  N    -3.216552  6.176047  4.345301
  S    -3.116172  2.726392  3.348304
  S    -3.694264  5.854745  2.778273
  S    -0.039697  2.832197  0.575540
  S    -0.349043  6.553000  0.423507
  S    -0.769953  3.724303  4.562599
  S    -1.682378  6.730372  4.459863
