16  
    
  C    -5.553239  0.862785  1.433891
  C    -5.347545  5.014896  1.207558
  C    -6.780774  0.447952  0.784299
  C    -6.546232  4.387884  0.708904
  N    -4.511122  1.122008  0.625240
  N    -4.391197  5.265025  0.318238
  N    -6.648147  0.240428 -0.530948
  N    -6.452899  4.144686 -0.608480
  N    -7.361494  0.887380  3.281172
  N    -6.770769  4.374658  3.277258
  S    -8.070394  0.162542  1.908672
  S    -7.676707  3.883177  1.977140
  S    -5.025826  0.622782 -0.927519
  S    -4.945793  4.657953 -1.137580
  S    -5.648406  1.024364  3.228864
  S    -5.306205  5.013285  2.916791
