16  
    
  C     1.859438  5.120953  3.133306
  C     2.238047  8.650503  3.259711
  C     0.806477  4.521266  2.345089
  C     1.058121  8.156727  2.628947
  N     2.948790  5.264249  2.442196
  N     3.173044  9.003247  2.356836
  N     1.125911  4.363870  1.062781
  N     1.110802  8.081913  1.287026
  N    -0.004023  4.809967  4.772277
  N     0.418519  8.063723  5.043772
  S    -0.539486  4.114703  3.408542
  S    -0.308031  7.770824  3.586582
  S     2.707567  4.864948  0.865092
  S     2.611282  8.487368  0.873821
  S     1.591135  5.291224  4.853270
  S     1.988105  8.518344  5.035827
