16  
    
  C    -1.542743  3.013751  1.986318
  C    -1.007266  6.857822  2.325011
  C    -2.582389  2.190306  1.392189
  C    -2.301498  6.510396  1.773770
  N    -0.455154  3.278972  1.209284
  N    -0.159076  7.147920  1.335634
  N    -2.439626  2.132464  0.060667
  N    -2.303720  6.347249  0.441376
  N    -3.325082  2.522958  3.837177
  N    -2.704413  6.819026  4.327897
  S    -3.862356  1.774206  2.431428
  S    -3.558833  6.623092  2.953414
  S    -0.934039  2.739119 -0.316698
  S    -0.765824  6.664246 -0.126201
  S    -1.898867  3.362516  3.641423
  S    -1.116328  7.122818  4.039480
