16  
    
  C    -2.373351  2.165113  2.016894
  C    -2.503351  5.665501  2.117897
  C    -3.704306  1.936276  1.444372
  C    -3.685029  5.289261  1.381489
  N    -1.390159  1.971034  1.151306
  N    -1.436317  5.793957  1.281851
  N    -3.714823  1.619821  0.158335
  N    -3.591173  5.166809  0.051593
  N    -4.119052  2.204787  3.921844
  N    -4.403447  5.506884  3.881950
  S    -5.050850  2.105819  2.545096
  S    -5.102199  5.305589  2.422060
  S    -2.165365  1.572663 -0.304313
  S    -1.909681  5.381220 -0.232421
  S    -2.440991  2.347413  3.736518
  S    -2.790341  5.978782  3.811572
