16  
    
  C     2.150912  4.457607  3.055578
  C     1.951852  8.117443  3.139769
  C     0.975568  4.010703  2.339427
  C     0.853761  7.507308  2.494844
  N     3.194638  4.657401  2.229683
  N     3.030265  8.259928  2.373243
  N     1.222751  3.564895  1.098228
  N     1.145245  7.114758  1.257309
  N     0.301774  4.438554  4.746619
  N     0.087329  8.220035  4.839312
  S    -0.412969  3.970974  3.310854
  S    -0.589356  7.587436  3.496186
  S     2.753168  4.029270  0.742732
  S     2.696208  7.489808  0.962796
  S     1.876733  4.818389  4.777180
  S     1.716646  8.533301  4.809537
