16  
    
  C     2.975623  5.195065  3.483540
  C     2.850457  8.712638  3.320502
  C     1.736409  4.792797  2.809770
  C     1.701208  8.160739  2.631856
  N     3.934910  5.587516  2.612222
  N     3.890011  9.130547  2.650069
  N     1.849821  4.655448  1.490225
  N     1.930174  8.200109  1.326942
  N     1.046047  5.115119  5.243406
  N     1.195640  8.318584  5.173611
  S     0.429675  4.368308  3.851245
  S     0.403378  7.798248  3.817715
  S     3.375513  5.228946  1.082430
  S     3.460675  8.890807  1.100144
  S     2.725253  5.362531  5.233943
  S     2.662182  9.011990  5.044917
