16  
    
  C    -0.461912  3.473383  2.916801
  C    -0.984426  6.758315  2.764831
  C    -1.624279  2.839637  2.276766
  C    -2.088648  6.246423  1.889292
  N     0.633132  3.473700  2.189569
  N     0.130461  7.071234  2.126681
  N    -1.461427  2.621862  0.966742
  N    -1.727459  6.152529  0.610363
  N    -2.253754  3.403891  4.693918
  N    -2.973648  6.334721  4.303448
  S    -2.984959  2.786887  3.359706
  S    -3.589292  6.012517  2.740928
  S     0.093318  3.084164  0.623775
  S    -0.179025  6.598273  0.593020
  S    -0.670022  3.754085  4.635469
  S    -1.423360  6.939533  4.360052
