16  
    
  C    -6.046068  0.773799  1.344108
  C    -6.105012  4.339119  1.803840
  C    -7.243010  0.119760  0.794278
  C    -7.239658  3.795297  1.035321
  N    -5.141985  1.233044  0.485886
  N    -5.092527  4.669957  1.038226
  N    -7.225308  0.155629 -0.534082
  N    -7.089450  3.891721 -0.285417
  N    -7.677414  0.261171  3.353953
  N    -7.768971  3.619459  3.537418
  S    -8.500296 -0.198118  1.969748
  S    -8.572726  3.495347  2.095544
  S    -5.833406  0.982701 -1.069872
  S    -5.510821  4.479647 -0.544505
  S    -6.147996  0.863406  3.114609
  S    -6.315075  4.489763  3.520018
