16  
    
  C    -1.922646  2.412151  2.564274
  C    -1.696111  5.823566  2.306056
  C    -3.078405  2.035050  1.861912
  C    -2.910060  5.745474  1.599339
  N    -0.867955  2.598630  1.774836
  N    -0.519895  5.863504  1.590302
  N    -2.983033  1.995349  0.508369
  N    -2.750383  5.688753  0.253833
  N    -3.696761  2.128638  4.388714
  N    -3.625074  5.535177  4.155210
  S    -4.457853  1.981691  2.943594
  S    -4.307145  5.334492  2.654088
  S    -1.435501  2.474731  0.212998
  S    -1.100613  5.888505  0.029010
  S    -2.071458  2.448035  4.305160
  S    -2.016480  5.875524  4.021724
