16  
    
  C    -0.304569  3.255604  2.638486
  C    -0.233576  6.929370  2.448650
  C    -1.503718  2.691999  2.099702
  C    -1.427843  6.178257  1.878953
  N     0.661072  3.439091  1.736540
  N     0.669905  7.261932  1.544180
  N    -1.464490  2.479183  0.796435
  N    -1.283965  5.898843  0.577970
  N    -2.002470  2.856723  4.562320
  N    -1.997433  6.805160  4.364153
  S    -2.830578  2.521653  3.204464
  S    -2.655021  5.936912  3.121054
  S     0.043188  2.910689  0.285998
  S     0.192593  6.546649  0.106527
  S    -0.432798  3.375223  4.392769
  S    -0.481300  7.465176  4.069951
