16  
    
  C    -0.426652  3.659222  2.882334
  C    -0.685412  6.884656  2.733353
  C    -1.543239  2.963137  2.219791
  C    -1.882426  6.410151  1.968761
  N     0.620018  3.712558  2.084377
  N     0.379780  7.109971  1.951612
  N    -1.367639  2.672179  0.939624
  N    -1.644056  6.154822  0.694097
  N    -2.130990  3.208723  4.672348
  N    -2.705182  6.562385  4.305528
  S    -2.916669  2.934741  3.311162
  S    -3.272941  6.037732  2.816848
  S     0.136653  3.222227  0.567946
  S    -0.098644  6.634651  0.412347
  S    -0.584226  3.737441  4.620298
  S    -1.081304  7.058797  4.362644
