16  
    
  C    -3.449875  1.826619  1.675630
  C    -3.620946  5.600030  1.723102
  C    -4.575916  1.091589  1.094796
  C    -4.806498  5.175867  1.058997
  N    -2.390164  1.902696  0.892976
  N    -2.584153  5.958786  0.974905
  N    -4.421724  0.823734 -0.218241
  N    -4.667723  5.154241 -0.264601
  N    -5.135940  1.498431  3.510040
  N    -5.437081  5.119986  3.560257
  S    -5.818712  0.801343  2.190359
  S    -6.234798  4.900204  2.107034
  S    -2.880031  1.284194 -0.556179
  S    -3.143987  5.584263 -0.639171
  S    -3.623612  2.089658  3.354725
  S    -3.906514  5.637896  3.436326
