16  
    
  C    -1.515191  2.781444  2.051530
  C    -1.170688  6.765118  2.169621
  C    -2.586151  2.058529  1.422986
  C    -2.435043  6.350718  1.615843
  N    -0.512460  3.177843  1.265928
  N    -0.189604  6.825256  1.298355
  N    -2.277770  1.750875  0.173284
  N    -2.520794  6.244136  0.280166
  N    -3.369567  2.409182  3.849838
  N    -2.895795  6.762794  4.215134
  S    -3.895606  1.638599  2.493898
  S    -3.702783  6.294007  2.882372
  S    -0.823713  2.427167 -0.182087
  S    -0.913145  6.387207 -0.203816
  S    -1.874238  3.087794  3.741441
  S    -1.300289  7.109053  3.931798
