16  
    
  C     2.108970  4.643044  2.982090
  C     2.171504  8.572630  3.056242
  C     0.899164  4.165914  2.325016
  C     1.010175  7.898402  2.449248
  N     3.101051  4.585505  2.120648
  N     3.201497  8.745204  2.253615
  N     0.908682  4.090789  0.979239
  N     1.221180  7.560798  1.165504
  N     0.360420  4.432890  4.756697
  N     0.437166  8.493873  4.948664
  S    -0.379480  3.794546  3.444885
  S    -0.372217  7.840086  3.647623
  S     2.553378  4.342013  0.537695
  S     2.830512  8.022967  0.860635
  S     1.967720  4.742102  4.760007
  S     2.011021  8.962056  4.721475
