16  
    
  C     0.682386  3.520160  2.706781
  C     0.662682  7.711727  2.725264
  C    -0.697773  3.406094  2.178431
  C    -0.530484  6.983829  2.137990
  N     1.646319  3.915282  1.837782
  N     1.569747  8.022072  1.809788
  N    -0.660220  3.347867  0.848971
  N    -0.483429  6.844125  0.825258
  N    -0.948288  3.267997  4.724759
  N    -1.051256  7.331673  4.647089
  S    -1.965828  3.103887  3.354862
  S    -1.789087  6.626717  3.280396
  S     0.902004  3.683947  0.325626
  S     0.928404  7.447601  0.337505
  S     0.627384  3.499370  4.407191
  S     0.537124  7.867980  4.423882
