16  
    
  C    -1.949037  2.251915  2.056892
  C    -2.005231  5.894181  2.136503
  C    -3.193667  1.898823  1.351477
  C    -3.259742  5.686199  1.516170
  N    -0.925409  2.355155  1.215890
  N    -0.965806  6.000791  1.309206
  N    -3.113624  1.834444  0.013275
  N    -3.221516  5.589637  0.147937
  N    -3.780706  2.391296  3.801887
  N    -3.720421  5.695591  4.099676
  S    -4.524303  1.778132  2.456583
  S    -4.565189  5.546008  2.720873
  S    -1.515712  2.132626 -0.357046
  S    -1.623694  5.669320 -0.206280
  S    -2.138790  2.461040  3.771287
  S    -2.117590  6.065059  3.893744
