16  
    
  C     1.901675  4.210272  3.307436
  C     1.785810  7.835880  3.040565
  C     0.594823  4.070876  2.695761
  C     0.447257  7.583047  2.431132
  N     2.950537  4.359559  2.528089
  N     2.812729  7.969084  2.170341
  N     0.698180  4.214925  1.409521
  N     0.441661  7.614789  1.095903
  N     0.209928  3.936964  5.214914
  N     0.081419  7.332446  4.932217
  S    -0.708335  3.782862  3.812261
  S    -0.773860  7.099656  3.531163
  S     2.346682  4.320675  0.972701
  S     2.061538  7.927344  0.697752
  S     1.808424  4.254368  5.075913
  S     1.701834  7.701176  4.784935
