16  
    
  C    -0.566019  3.182960  2.861602
  C    -1.247301  6.700277  2.707920
  C    -1.782944  2.883305  2.244933
  C    -2.296368  6.136613  1.887695
  N     0.502071  3.213539  2.029263
  N    -0.153234  6.990414  1.988146
  N    -1.675788  2.522974  0.960086
  N    -2.067000  6.151494  0.566906
  N    -2.406139  3.219557  4.732364
  N    -3.192913  6.128049  4.278743
  S    -3.129928  2.738815  3.277953
  S    -3.759692  5.782769  2.782960
  S    -0.093449  2.781436  0.561381
  S    -0.416959  6.553812  0.407933
  S    -0.770204  3.677704  4.550716
  S    -1.659747  6.708268  4.378270
