16  
    
  C    -2.282961  2.548842  1.938177
  C    -2.189610  5.853217  2.197513
  C    -3.519609  2.055713  1.386144
  C    -3.389304  5.439255  1.579815
  N    -1.266634  2.552687  1.057891
  N    -1.144171  6.167225  1.327675
  N    -3.495809  1.757181  0.089828
  N    -3.305181  5.321737  0.248518
  N    -3.922018  2.385272  3.949384
  N    -4.102539  5.927243  4.028016
  S    -4.776765  2.001966  2.550308
  S    -4.855354  5.426263  2.607997
  S    -1.949792  2.072791 -0.422381
  S    -1.735138  5.679069 -0.152497
  S    -2.294789  2.723634  3.676502
  S    -2.431126  6.159881  3.962320
