16  
    
  C     0.977983  4.202600  2.579070
  C     1.326680  7.959873  3.169451
  C    -0.018726  3.428126  1.924691
  C     0.099552  7.606298  2.587978
  N     2.090566  4.323547  1.861444
  N     2.340556  8.047886  2.310146
  N     0.260119  3.203502  0.652574
  N     0.115747  7.389109  1.271089
  N    -0.958982  3.951849  4.278203
  N    -0.485783  7.961861  5.079178
  S    -1.516476  3.210257  2.853438
  S    -1.285136  7.680949  3.620446
  S     1.756291  3.762838  0.372067
  S     1.710451  7.693029  0.848672
  S     0.601803  4.400547  4.249983
  S     1.157438  8.133150  4.914024
