16  
    
  C     1.002228  4.247226  2.592180
  C     1.123567  7.912680  3.161857
  C    -0.010745  3.456301  1.977703
  C    -0.112000  7.576633  2.542933
  N     2.088653  4.334597  1.832831
  N     2.135198  8.067026  2.316784
  N     0.168323  3.121956  0.686018
  N     0.045094  7.291338  1.262587
  N    -0.877543  4.167114  4.301872
  N    -0.520220  7.862732  5.038012
  S    -1.415358  3.221677  2.987033
  S    -1.409689  7.558970  3.656203
  S     1.716944  3.558616  0.360952
  S     1.649232  7.618062  0.811390
  S     0.684785  4.633692  4.329848
  S     1.073947  8.132849  4.861847
