16  
    
  C     3.006558  4.944503  3.232982
  C     3.041388  9.273444  3.781582
  C     1.769465  4.535946  2.652010
  C     1.873793  8.648057  3.103492
  N     3.917354  5.335279  2.320848
  N     4.017191  9.449171  2.927065
  N     1.829665  4.319216  1.328833
  N     1.985126  8.328005  1.839881
  N     1.163779  5.020710  5.088466
  N     1.109123  8.655007  5.441807
  S     0.456820  4.259035  3.773787
  S     0.480667  8.203790  4.000423
  S     3.353450  4.801375  0.851791
  S     3.441036  8.984238  1.351193
  S     2.789235  5.448381  4.875327
  S     2.584294  9.433897  5.491467
