16  
    
  C     2.138802  4.492201  2.936299
  C     2.143649  8.571116  3.066049
  C     0.969026  3.885446  2.363371
  C     1.043016  7.791378  2.587754
  N     3.230493  4.545511  2.191079
  N     3.119066  8.680955  2.151452
  N     1.110819  3.754099  1.052371
  N     1.170702  7.226234  1.397634
  N     0.400078  4.247726  4.776173
  N     0.287808  8.485321  4.950109
  S    -0.398352  3.883020  3.375372
  S    -0.388524  7.858473  3.551032
  S     2.709165  4.183423  0.653506
  S     2.591942  7.807195  0.846388
  S     1.984066  4.567990  4.637081
  S     1.856027  9.086334  4.772380
