16  
    
  C     2.237881  4.446492  3.036477
  C     1.948421  8.407351  3.053460
  C     1.086235  3.820891  2.352063
  C     0.796328  7.666791  2.541764
  N     3.319220  4.507143  2.275464
  N     3.060772  8.417872  2.288484
  N     1.245604  3.721517  1.054742
  N     1.044385  7.126648  1.341239
  N     0.287632  4.337045  4.760520
  N     0.134565  8.664771  4.905434
  S    -0.366926  3.885117  3.260781
  S    -0.521234  7.650001  3.737301
  S     2.906781  3.959455  0.732644
  S     2.607411  7.658464  0.932266
  S     1.882951  4.563482  4.730447
  S     1.769854  9.088050  4.635594
