16  
    
  C     2.884813  5.309046  3.233695
  C     2.848476  9.183857  3.447167
  C     1.786749  4.470803  2.742362
  C     1.786625  8.471397  2.797321
  N     3.849154  5.553031  2.304029
  N     3.816190  9.496363  2.652098
  N     1.818838  4.346486  1.414068
  N     1.983650  8.279233  1.515210
  N     1.345126  4.625494  5.199472
  N     1.109839  8.505702  5.316836
  S     0.508135  4.175608  3.869334
  S     0.492759  7.859510  3.864530
  S     3.249434  4.874568  0.870391
  S     3.396495  8.989807  1.118587
  S     2.773988  5.514266  4.979607
  S     2.698648  9.145201  5.174587
