16  
    
  C    -3.688128  1.772604  1.832792
  C    -3.958616  5.410956  1.844888
  C    -4.958708  1.427015  1.206840
  C    -5.061684  4.983767  1.070968
  N    -2.733467  1.915542  0.892910
  N    -2.884157  5.747031  1.112912
  N    -4.918771  1.362946 -0.134746
  N    -4.910770  5.139865 -0.234874
  N    -5.512695  1.620345  3.763592
  N    -5.750057  4.614031  3.558840
  S    -6.288048  1.120409  2.360041
  S    -6.518821  4.566726  2.040159
  S    -3.322218  1.691548 -0.606057
  S    -3.320575  5.570472 -0.512002
  S    -3.843803  1.755113  3.582083
  S    -4.250586  5.414427  3.555788
