16  
    
  C    -4.444119  1.460648  1.903263
  C    -4.660281  4.806987  1.646411
  C    -5.575957  0.764590  1.331745
  C    -5.736181  4.328936  0.798274
  N    -3.465051  1.821614  1.051621
  N    -3.571712  5.232038  1.011842
  N    -5.576839  0.775748  0.021985
  N    -5.489300  4.438318 -0.510288
  N    -6.051770  0.867783  3.888568
  N    -6.367912  3.895534  3.308242
  S    -6.815453  0.267843  2.447739
  S    -7.109688  3.759099  1.786782
  S    -4.086151  1.389669 -0.411205
  S    -3.963091  5.044693 -0.561766
  S    -4.439378  1.311882  3.617903
  S    -4.911113  4.716533  3.385681
