16  
    
  C    -3.715841  1.858404  2.044475
  C    -3.440433  5.335132  2.003246
  C    -4.730332  1.085962  1.330899
  C    -4.710714  4.815300  1.501958
  N    -2.723767  2.159794  1.251381
  N    -2.450504  5.418813  1.153977
  N    -4.371238  0.748980  0.112423
  N    -4.656994  4.563634  0.188147
  N    -5.612489  1.509404  3.659128
  N    -5.119275  5.301233  4.022690
  S    -6.095313  0.620674  2.235750
  S    -5.970256  4.934745  2.682137
  S    -2.948164  1.535777 -0.223684
  S    -3.107794  4.797876 -0.276255
  S    -4.049936  2.190408  3.700453
  S    -3.515261  5.737457  3.659197
