16  
    
  C     3.006077  5.312148  3.375221
  C     3.620387  9.016024  3.369674
  C     1.866253  4.606384  2.782904
  C     2.331148  8.606073  2.900700
  N     4.051376  5.452308  2.602333
  N     4.538608  9.138491  2.403087
  N     2.024590  4.450489  1.468359
  N     2.233667  8.316893  1.571843
  N     1.322665  4.834252  5.231806
  N     1.971219  8.992596  5.383786
  S     0.589290  4.316616  3.844260
  S     1.094585  8.583356  4.062186
  S     3.607385  4.963278  1.141424
  S     3.786622  8.722518  0.942607
  S     2.823747  5.524161  5.042271
  S     3.545563  9.364449  5.139330
