16  
    
  C    -4.300213  1.669092  1.935986
  C    -4.362980  5.203515  1.731449
  C    -5.434728  1.137052  1.226395
  C    -5.690344  4.829800  1.165777
  N    -3.223496  1.736275  1.179245
  N    -3.388542  5.277152  0.842395
  N    -5.165627  0.661372  0.024690
  N    -5.666250  4.522828 -0.119573
  N    -6.126008  1.525862  3.663499
  N    -6.186459  5.197659  3.649023
  S    -6.842867  0.992117  2.292796
  S    -6.984428  4.662876  2.276769
  S    -3.613032  1.019728 -0.249356
  S    -4.131268  4.858714 -0.621080
  S    -4.547728  2.094293  3.653857
  S    -4.530694  5.586699  3.426764
