16  
    
  C     2.131486  4.458533  2.929583
  C     2.156795  8.537211  3.062492
  C     0.954969  3.889300  2.326430
  C     1.016153  7.743393  2.625197
  N     3.257871  4.540816  2.224250
  N     3.108306  8.686502  2.149318
  N     1.153278  3.642663  1.027188
  N     1.097513  7.209662  1.410786
  N     0.430352  4.222507  4.752284
  N     0.264087  8.506037  4.913644
  S    -0.417838  3.896382  3.359825
  S    -0.400300  7.839929  3.564703
  S     2.752333  4.159176  0.663174
  S     2.585919  7.762068  0.854304
  S     1.986056  4.559101  4.682534
  S     1.824043  9.101828  4.770451
