16  
    
  C    -1.699865  2.445034  2.398289
  C    -1.728400  6.241839  2.426478
  C    -2.927142  2.095986  1.711150
  C    -2.880280  5.696377  1.781717
  N    -0.677845  2.784879  1.643591
  N    -0.653771  6.357853  1.630496
  N    -2.726869  1.902314  0.424764
  N    -2.697008  5.488428  0.483917
  N    -3.563561  2.341108  4.188297
  N    -3.484215  5.728166  4.176756
  S    -4.281562  2.207636  2.720995
  S    -4.243238  5.394967  2.757852
  S    -1.121370  2.335777  0.093468
  S    -1.198625  5.928418  0.145735
  S    -1.942931  2.772903  4.092813
  S    -1.928565  6.277463  4.101357
