16  
    
  C     2.353921  4.758391  3.324919
  C     2.372971  8.638887  3.527301
  C     1.095484  4.490492  2.664595
  C     1.154213  8.356901  2.874575
  N     3.325953  5.057381  2.462018
  N     3.379044  8.824922  2.668713
  N     1.257785  4.280913  1.358883
  N     1.209940  8.386120  1.544846
  N     0.590951  4.241608  5.202712
  N     0.593429  8.755414  5.385229
  S    -0.154300  3.834177  3.730091
  S    -0.154865  8.125849  4.004823
  S     2.753836  4.755649  0.893549
  S     2.809517  8.637924  1.125631
  S     2.182478  4.708864  5.053719
  S     2.258819  9.046533  5.186795
