16  
    
  C     2.835984  5.407170  3.866120
  C     2.417841  8.567296  3.388247
  C     1.723485  4.668775  3.362216
  C     1.317718  8.013991  2.688649
  N     3.861438  5.516685  3.042983
  N     3.475096  8.701763  2.572149
  N     1.831879  4.274562  2.106019
  N     1.416705  7.783989  1.390226
  N     1.194681  5.327180  5.818077
  N     0.428030  8.467709  5.052850
  S     0.396393  4.781708  4.405991
  S    -0.100052  7.759180  3.650532
  S     3.374099  4.752818  1.635711
  S     2.961144  8.255784  0.993124
  S     2.821517  5.733873  5.535024
  S     2.059250  8.843827  5.068476
