16  
    
  C     0.021394  3.613058  2.577110
  C     0.281655  7.545887  2.661354
  C    -1.124192  2.908031  1.960639
  C    -0.950882  7.129770  2.003455
  N     1.030257  3.838391  1.744831
  N     1.366809  7.711410  1.914938
  N    -0.975345  2.694451  0.665811
  N    -0.774884  7.010085  0.693622
  N    -1.809847  3.394780  4.389706
  N    -1.447990  7.188031  4.505552
  S    -2.387359  2.630527  3.095483
  S    -2.314186  6.999837  3.111403
  S     0.547305  3.166953  0.304655
  S     0.812580  7.279049  0.375111
  S    -0.261368  4.082546  4.272103
  S     0.225875  7.488640  4.371001
