16  
    
  C    -0.323233  3.246529  2.614912
  C    -0.211584  7.071584  2.401445
  C    -1.551734  2.582726  2.050473
  C    -1.344457  6.286712  1.803111
  N     0.679155  3.383261  1.741872
  N     0.776584  7.342833  1.545377
  N    -1.491099  2.460493  0.726169
  N    -1.178920  5.928411  0.547537
  N    -1.947266  2.904391  4.633177
  N    -2.000160  6.703503  4.222657
  S    -2.779346  2.492790  3.255542
  S    -2.596107  5.903188  2.894953
  S     0.029573  2.951354  0.247392
  S     0.215433  6.659532  0.065516
  S    -0.284517  3.293045  4.353347
  S    -0.427212  7.324013  4.100949
