16  
    
  C    -0.718922  2.993918  2.414770
  C    -0.896486  6.338851  2.500296
  C    -1.975279  2.652645  1.864365
  C    -2.041658  5.841113  1.773770
  N     0.246677  3.322234  1.543284
  N     0.175024  6.521077  1.735411
  N    -1.930493  2.420750  0.546518
  N    -1.881633  5.865493  0.441324
  N    -2.427821  2.735371  4.386977
  N    -2.878345  6.397268  4.233501
  S    -3.249972  2.551498  2.964892
  S    -3.495954  5.719284  2.862025
  S    -0.382821  2.795549  0.063610
  S    -0.287802  6.206425  0.176652
  S    -0.843535  3.237584  4.191985
  S    -1.202083  6.636623  4.199616
