16  
    
  C     2.031749  4.610056  3.265068
  C     1.594696  7.938507  3.057073
  C     0.868787  3.974563  2.690321
  C     0.440276  7.447421  2.352095
  N     3.079432  4.641683  2.392778
  N     2.645486  8.185059  2.279757
  N     0.915867  3.973895  1.327249
  N     0.526512  7.416458  1.038663
  N     0.253098  4.300855  5.208927
  N    -0.315518  7.634936  4.812957
  S    -0.518702  3.740743  3.858117
  S    -0.942996  7.026630  3.367976
  S     2.455701  4.298788  0.917732
  S     2.088158  7.841020  0.721311
  S     1.845085  4.942863  4.944084
  S     1.258793  8.143342  4.751094
