16  
    
  C     2.968379  5.268741  3.653447
  C     2.919303  8.689616  3.540411
  C     1.738448  5.025653  2.968060
  C     1.754068  8.358145  2.737795
  N     4.026149  5.287490  2.861439
  N     4.071920  8.714200  2.865891
  N     1.822950  4.869182  1.659724
  N     2.041135  8.288598  1.458334
  N     1.093032  4.866807  5.411563
  N     1.045543  8.752775  5.147312
  S     0.327071  4.965803  3.916745
  S     0.332570  8.156510  3.807844
  S     3.395676  4.994690  1.303389
  S     3.664954  8.468836  1.234109
  S     2.765889  5.257254  5.366196
  S     2.678642  8.924101  5.194952
