16  
    
  C    -4.385591  1.405926  1.905384
  C    -4.496177  4.853636  1.697267
  C    -5.568853  0.741572  1.347190
  C    -5.627444  4.310969  0.943298
  N    -3.464122  1.778490  0.986366
  N    -3.516571  5.334957  0.917521
  N    -5.583512  0.744087  0.011019
  N    -5.486101  4.360072 -0.387400
  N    -5.934100  0.862956  3.984524
  N    -6.495782  4.288553  3.468503
  S    -6.817687  0.473724  2.574468
  S    -7.026311  3.787060  1.901536
  S    -4.119170  1.459240 -0.510909
  S    -4.018090  5.011378 -0.665247
  S    -4.438573  1.563350  3.724056
  S    -4.933921  4.878648  3.491710
