16  
    
  C    -0.346250  3.252305  2.524323
  C    -0.250720  7.017485  2.278230
  C    -1.585148  2.770513  2.001482
  C    -1.459068  6.627621  1.726218
  N     0.604226  3.473043  1.634065
  N     0.775533  7.149869  1.449083
  N    -1.573453  2.678296  0.678972
  N    -1.458799  6.460830  0.396497
  N    -2.057379  3.203117  4.524965
  N    -1.963889  6.726367  4.222730
  S    -2.904418  2.838460  3.095224
  S    -2.817564  6.546778  2.812781
  S    -0.017601  2.999752  0.169389
  S     0.106628  6.872111 -0.082987
  S    -0.432045  3.491297  4.254539
  S    -0.372061  7.162751  4.080381
