16  
    
  C     0.588556  3.803688  3.130082
  C     1.017326  7.530889  2.687224
  C    -0.387445  3.088900  2.363038
  C    -0.091691  7.027050  2.047822
  N     1.694226  4.211616  2.458061
  N     2.074817  7.811355  1.951545
  N    -0.220910  3.259128  1.031183
  N     0.112720  6.920951  0.746125
  N    -1.359724  2.994609  4.726362
  N    -0.650449  7.025572  4.492919
  S    -1.883746  2.672925  3.234642
  S    -1.417692  6.590468  3.074906
  S     1.301566  3.851371  0.844108
  S     1.637880  7.436683  0.375853
  S     0.158099  3.750108  4.823926
  S     0.880351  7.691873  4.406190
