16  
    
  C     3.200514  4.949490  3.461858
  C     3.298163  9.231532  3.724460
  C     1.949331  4.744711  2.744202
  C     2.139349  8.860121  2.936069
  N     4.212167  5.184457  2.648752
  N     4.442616  9.309026  3.112228
  N     2.129420  4.485092  1.428344
  N     2.441420  8.631415  1.677032
  N     1.392808  5.091450  5.196532
  N     1.422638  8.819804  5.492235
  S     0.567189  4.541295  3.795428
  S     0.676727  8.773800  3.943161
  S     3.745597  4.809641  1.171893
  S     4.125505  9.004697  1.515446
  S     3.067688  5.251283  5.141909
  S     3.089367  9.271050  5.409937
