16  
    
  C     1.199149  4.431010  3.167820
  C     1.664492  8.163274  3.028215
  C    -0.007476  3.957352  2.534214
  C     0.385962  7.988149  2.360142
  N     2.138114  4.594559  2.250266
  N     2.730389  7.995502  2.220006
  N    -0.063809  4.119418  1.224134
  N     0.420301  7.771452  1.026075
  N    -0.449453  4.191936  5.166801
  N    -0.132516  8.251064  4.887360
  S    -1.239618  3.776864  3.692275
  S    -0.980276  8.156734  3.452307
  S     1.535305  4.415988  0.734675
  S     2.081113  7.828094  0.753366
  S     1.131374  4.579326  4.874711
  S     1.533559  8.360003  4.740200
