16  
    
  C    -3.083464  2.172044  1.725434
  C    -2.975409  5.877555  1.983504
  C    -4.177871  1.582819  0.984363
  C    -4.251567  5.487182  1.462097
  N    -2.052908  2.506059  0.973002
  N    -2.099856  6.108669  1.029277
  N    -4.009989  1.517620 -0.337983
  N    -4.361552  5.304901  0.165755
  N    -4.985069  1.599400  3.521123
  N    -4.555527  5.506762  4.012954
  S    -5.502132  0.993002  2.054261
  S    -5.505917  5.310017  2.598054
  S    -2.483584  2.034022 -0.619159
  S    -2.836185  5.739896 -0.375251
  S    -3.396527  2.258407  3.458888
  S    -3.012514  6.040030  3.740289
