16  
    
  C    -4.016727  1.488001  1.709275
  C    -3.957966  5.115595  1.961947
  C    -5.282312  1.317398  1.018081
  C    -5.300898  5.023655  1.256682
  N    -2.989048  1.445167  0.868792
  N    -2.920554  5.460869  1.177201
  N    -5.178262  1.106805 -0.282987
  N    -5.185836  5.200466 -0.032793
  N    -5.765144  1.598145  3.466071
  N    -5.872264  4.907430  3.652518
  S    -6.646831  1.333835  2.098773
  S    -6.706903  4.879132  2.210470
  S    -3.577590  1.145106 -0.612304
  S    -3.624486  5.524548 -0.407377
  S    -4.094150  1.669928  3.400085
  S    -4.222863  5.200412  3.676179
