16  
    
  C    -0.313866  3.222700  2.624236
  C    -0.215310  7.095138  2.419816
  C    -1.536917  2.608250  2.044373
  C    -1.349505  6.269018  1.816564
  N     0.656557  3.416019  1.744241
  N     0.758527  7.312941  1.556794
  N    -1.504464  2.461276  0.719060
  N    -1.180722  5.919912  0.563801
  N    -1.947976  2.903188  4.633186
  N    -1.994870  6.721001  4.226259
  S    -2.785687  2.499661  3.244467
  S    -2.597131  5.900091  2.902674
  S     0.027821  2.936757  0.245592
  S     0.198590  6.650305  0.077571
  S    -0.287449  3.296311  4.371326
  S    -0.426543  7.337533  4.089741
