16  
    
  C    -3.151490  1.712011  2.020099
  C    -3.204209  5.558098  2.121404
  C    -4.374860  1.412548  1.377050
  C    -4.287847  4.875648  1.482789
  N    -2.172197  2.060216  1.180754
  N    -2.202316  5.843872  1.270168
  N    -4.299617  1.324943  0.039766
  N    -4.177229  4.719902  0.163985
  N    -5.055549  1.582371  3.811232
  N    -4.808676  5.037805  3.965945
  S    -5.750192  1.247279  2.375557
  S    -5.567181  4.564132  2.565335
  S    -2.763699  1.760645 -0.325399
  S    -2.636755  5.370932 -0.216302
  S    -3.459776  1.910065  3.719603
  S    -3.334916  5.890289  3.843218
