16  
    
  C    -1.900173  2.438534  2.499005
  C    -1.831384  5.956360  2.318961
  C    -3.045657  1.905261  1.854280
  C    -3.042076  5.576293  1.711570
  N    -0.800767  2.575309  1.776290
  N    -0.921912  6.345468  1.479553
  N    -2.899862  1.839393  0.546959
  N    -3.031955  5.559307  0.388587
  N    -3.697943  2.084571  4.295404
  N    -3.379664  5.654883  4.249252
  S    -4.383610  1.615600  2.876134
  S    -4.285721  5.447143  2.861360
  S    -1.282971  2.233105  0.230255
  S    -1.451153  5.946138 -0.045246
  S    -2.103212  2.577550  4.273192
  S    -1.789116  6.151620  4.029353
