16  
    
  C     0.427132  3.780784  3.017926
  C     1.071621  7.485968  2.648813
  C    -0.507110  3.086166  2.176702
  C    -0.122201  6.993380  1.969620
  N     1.563294  4.159364  2.457906
  N     2.032283  7.959942  1.855022
  N    -0.172730  2.992264  0.894901
  N    -0.024865  6.965474  0.652856
  N    -1.439520  3.093279  4.560581
  N    -0.717745  6.923144  4.514416
  S    -1.848451  2.525009  3.093366
  S    -1.374703  6.545022  3.077302
  S     1.315619  3.821800  0.811732
  S     1.422057  7.666524  0.262987
  S     0.102612  3.819632  4.741470
  S     0.822198  7.537332  4.437682
