16  
    
  C    -4.456120  1.635902  1.956963
  C    -4.655473  5.027686  1.697563
  C    -5.614858  0.974435  1.348080
  C    -5.830803  4.431298  1.039548
  N    -3.458277  1.746546  1.098070
  N    -3.601421  5.296760  0.946757
  N    -5.528852  0.832634  0.008258
  N    -5.660044  4.326893 -0.262424
  N    -5.967825  1.061211  3.917638
  N    -6.405839  4.717282  3.528768
  S    -6.803139  0.622020  2.514183
  S    -7.078720  3.983463  2.132341
  S    -4.022856  1.271032 -0.362402
  S    -4.131819  4.913836 -0.574252
  S    -4.382348  1.758556  3.689134
  S    -4.802553  5.178787  3.359356
