16  
    
  C    -0.384747  3.443135  2.943062
  C    -0.964356  6.746566  2.718503
  C    -1.541392  2.922333  2.324138
  C    -2.016317  6.293870  1.889389
  N     0.618149  3.700675  2.083840
  N     0.158480  7.074905  2.079355
  N    -1.407586  2.665063  1.029073
  N    -1.703416  6.149528  0.612012
  N    -2.258175  3.346935  4.720797
  N    -2.939621  6.400756  4.335771
  S    -2.977074  2.838494  3.324994
  S    -3.474789  6.046223  2.829410
  S     0.123749  3.098619  0.619321
  S    -0.039211  6.612350  0.479468
  S    -0.633199  3.744689  4.656316
  S    -1.390147  6.988748  4.418201
