16  
    
  C    -0.390826  3.276634  2.700409
  C    -0.354340  7.029304  2.476673
  C    -1.418136  2.526235  2.081558
  C    -1.438791  6.412126  1.885479
  N     0.587962  3.667568  1.891571
  N     0.752602  7.118943  1.783988
  N    -1.112867  2.186654  0.844855
  N    -1.228507  6.095861  0.625472
  N    -2.280131  3.052255  4.489577
  N    -2.162675  6.971755  4.242553
  S    -2.808785  2.309255  3.081899
  S    -2.871213  6.374379  2.852403
  S     0.413557  2.817599  0.514208
  S     0.339654  6.623103  0.302596
  S    -0.712351  3.731208  4.364142
  S    -0.559874  7.474390  4.159234
