16  
    
  C     1.226986  4.318035  3.109148
  C     1.651860  8.226327  2.985574
  C    -0.037595  4.049077  2.493637
  C     0.365398  8.042961  2.326483
  N     2.164679  4.611123  2.221779
  N     2.743053  8.058188  2.247418
  N     0.002109  4.054273  1.146645
  N     0.483693  7.866002  1.002330
  N    -0.546113  4.183131  5.043451
  N    -0.081642  8.285532  4.871690
  S    -1.269107  3.729428  3.624174
  S    -0.959502  8.122331  3.478216
  S     1.536164  4.421857  0.743321
  S     2.096163  7.850183  0.709975
  S     1.099557  4.557040  4.898269
  S     1.553082  8.433769  4.726535
