16  
    
  C     0.896352  3.723213  3.068667
  C     1.162972  7.567914  2.959270
  C    -0.402138  3.461839  2.537739
  C     0.013317  7.043327  2.293589
  N     1.851549  3.818513  2.133609
  N     2.209775  7.723469  2.157943
  N    -0.358762  3.203215  1.223965
  N     0.197179  6.703668  1.024704
  N    -0.843025  3.427237  5.029343
  N    -0.752570  7.700383  4.696333
  S    -1.718615  3.257268  3.646620
  S    -1.472726  6.985313  3.361403
  S     1.136848  3.583130  0.711389
  S     1.799806  7.111349  0.701534
  S     0.791567  3.896750  4.794968
  S     0.874266  7.957918  4.651775
