16  
    
  C    -1.444458  3.357484  2.025103
  C    -0.994928  6.974148  2.474862
  C    -2.564398  2.614725  1.401643
  C    -2.295172  6.777747  1.884498
  N    -0.542787  3.832509  1.146529
  N     0.007155  6.965406  1.617183
  N    -2.375328  2.331862  0.092955
  N    -2.209662  6.841502  0.553364
  N    -3.105847  2.766520  3.896696
  N    -2.690517  6.717926  4.464707
  S    -3.814688  2.182747  2.510577
  S    -3.565908  6.617837  3.092671
  S    -0.904952  3.076216 -0.315031
  S    -0.627122  6.835378  0.076689
  S    -1.626104  3.488870  3.760636
  S    -1.096016  7.070358  4.211550
