16  
    
  C     0.693917  3.945672  2.875104
  C     0.614742  7.607722  2.705102
  C    -0.534583  3.386897  2.285791
  C    -0.608038  6.847393  2.242949
  N     1.729588  3.899576  2.061780
  N     1.574325  7.863964  1.797766
  N    -0.488343  3.256129  0.951775
  N    -0.556602  6.548939  0.949875
  N    -0.976701  3.624154  4.835693
  N    -0.887606  7.301628  4.736288
  S    -1.838424  3.217927  3.396250
  S    -1.759107  6.651641  3.498492
  S     1.068292  3.665310  0.480145
  S     0.907740  7.111997  0.451417
  S     0.604990  4.034753  4.602357
  S     0.502368  8.080948  4.355198
