16  
    
  C    -1.849035  2.455026  2.211759
  C    -1.876143  6.291348  2.271398
  C    -3.067906  2.005844  1.558001
  C    -3.005244  5.557076  1.699232
  N    -0.834405  2.659390  1.399298
  N    -0.923396  6.583464  1.396370
  N    -2.907621  1.695484  0.276535
  N    -2.949243  5.378569  0.340238
  N    -3.544755  2.176438  4.108233
  N    -3.537513  6.119311  4.174740
  S    -4.338617  1.813108  2.694318
  S    -4.206111  5.290186  2.896132
  S    -1.360841  2.173448 -0.117911
  S    -1.433396  5.904468  0.017273
  S    -1.915801  2.582937  3.934992
  S    -2.040314  6.762359  3.890503
