16  
    
  C     3.402672  5.343126  3.532709
  C     3.668792  9.323365  3.466774
  C     2.157646  4.918928  2.894677
  C     2.494198  8.658976  2.904090
  N     4.365960  5.600602  2.666883
  N     4.632693  9.479412  2.608849
  N     2.213678  4.817037  1.560529
  N     2.532334  8.394758  1.629961
  N     1.603115  4.903601  5.473821
  N     1.910259  8.719198  5.314257
  S     0.889346  4.549260  4.045130
  S     1.232108  8.127038  3.916298
  S     3.772190  5.137234  1.108246
  S     3.967884  8.980678  1.098779
  S     3.226164  5.352555  5.318100
  S     3.411762  9.418689  5.207545
