16  
    
  C    -1.943949  2.579515  2.651958
  C    -1.688970  5.875662  2.309441
  C    -3.045949  1.992766  1.915462
  C    -2.943553  5.663452  1.694625
  N    -0.889973  2.677623  1.879029
  N    -0.691944  6.111019  1.463090
  N    -2.904452  1.782313  0.615247
  N    -2.890856  5.581175  0.379193
  N    -3.735824  2.101298  4.416726
  N    -3.520228  5.682952  4.220825
  S    -4.443272  1.761849  2.943044
  S    -4.276765  5.448391  2.778148
  S    -1.334568  2.322235  0.303710
  S    -1.345423  5.965164 -0.072035
  S    -2.123856  2.411707  4.371117
  S    -1.885215  5.800871  4.037113
