16  
    
  C    -0.014475  3.346716  2.479305
  C    -0.047776  7.119096  2.676708
  C    -1.093256  2.715114  1.817871
  C    -1.237859  6.748798  2.044299
  N     1.059561  3.602034  1.785226
  N     0.961408  7.431292  1.890596
  N    -0.978598  2.729922  0.496923
  N    -1.091307  6.555282  0.741041
  N    -1.851730  2.961376  4.297991
  N    -1.747596  6.588021  4.450032
  S    -2.405876  2.299184  2.882006
  S    -2.565835  6.443469  3.023400
  S     0.595467  3.246008  0.209953
  S     0.402601  7.195510  0.339336
  S    -0.220971  3.515767  4.191664
  S    -0.138744  7.122478  4.414755
