16  
    
  C    -5.202613  1.019494  1.804693
  C    -5.206115  4.971414  1.334162
  C    -6.432459  0.535498  1.178513
  C    -6.367517  4.453640  0.650760
  N    -4.206641  1.239211  0.953875
  N    -4.119525  4.919884  0.595000
  N    -6.259525  0.306648 -0.124054
  N    -6.135582  4.159596 -0.624283
  N    -7.054907  1.045924  3.564150
  N    -6.941980  4.733670  3.139591
  S    -7.881191  0.508325  2.241766
  S    -7.727959  4.293747  1.708259
  S    -4.784954  0.795055 -0.534561
  S    -4.503425  4.443880 -0.923462
  S    -5.466190  1.336052  3.481861
  S    -5.391923  5.281298  2.996958
