16  
    
  C    -5.559482  0.765781  1.555409
  C    -5.487414  4.690859  1.256277
  C    -6.762483  0.437776  0.819992
  C    -6.762402  4.162233  0.673213
  N    -4.484271  0.883909  0.750080
  N    -4.555954  4.937904  0.323801
  N    -6.704198  0.248185 -0.500346
  N    -6.773223  4.074995 -0.671525
  N    -7.451075  0.586316  3.335276
  N    -7.213234  4.300985  3.243347
  S    -8.192431  0.289621  1.874121
  S    -8.062499  4.021011  1.855181
  S    -5.072125  0.585811 -0.825282
  S    -5.297810  4.633283 -1.178969
  S    -5.808709  1.110031  3.253584
  S    -5.698323  5.016356  3.017370
