16  
    
  C    -2.299972  2.496419  1.928964
  C    -2.266703  6.080181  2.210006
  C    -3.552883  2.056230  1.424540
  C    -3.480492  5.547190  1.518441
  N    -1.305294  2.526810  1.040951
  N    -1.268503  6.273719  1.391179
  N    -3.560408  1.803490  0.124377
  N    -3.266088  5.199043  0.255827
  N    -3.954553  2.392465  3.897686
  N    -4.122512  5.891835  3.987025
  S    -4.867543  2.015991  2.588189
  S    -4.891546  5.433350  2.561935
  S    -2.022457  2.120309 -0.387771
  S    -1.728487  5.656188 -0.129331
  S    -2.378810  2.808048  3.622652
  S    -2.480246  6.171882  3.920066
