16  
    
  C    -4.276667  1.747757  1.895904
  C    -4.323015  5.209538  1.749868
  C    -5.398941  1.127040  1.289830
  C    -5.567768  4.701983  1.200584
  N    -3.189080  1.696877  1.162760
  N    -3.365450  5.245369  0.856507
  N    -5.289507  0.691303  0.061095
  N    -5.543162  4.548121 -0.117203
  N    -6.056939  1.463602  3.757638
  N    -5.996483  5.091605  3.662620
  S    -6.821118  0.988497  2.286622
  S    -6.896597  4.655845  2.279594
  S    -3.614432  0.967811 -0.260431
  S    -4.002334  4.798042 -0.592103
  S    -4.514131  2.162593  3.526210
  S    -4.407872  5.649773  3.434991
