16  
    
  C    -5.412128  1.060802  1.553134
  C    -5.135566  4.597073  1.522284
  C    -6.648251  0.709852  0.926639
  C    -6.447851  4.192499  1.033558
  N    -4.407666  1.088809  0.705585
  N    -4.221241  4.590312  0.574037
  N    -6.588960  0.677428 -0.403424
  N    -6.496570  3.976004 -0.258395
  N    -7.130103  1.073542  3.471924
  N    -6.800413  4.544513  3.537065
  S    -7.953227  0.969327  2.018916
  S    -7.738099  4.280447  2.170074
  S    -4.992603  0.897819 -0.814401
  S    -4.966033  4.203462 -0.877655
  S    -5.527281  1.368896  3.294932
  S    -5.245171  5.050436  3.217674
