16  
    
  C    -3.322059  1.933634  2.018650
  C    -3.109871  5.546294  2.058394
  C    -4.565360  1.504218  1.449418
  C    -4.222373  4.838023  1.459085
  N    -2.352840  2.246673  1.167498
  N    -2.040850  5.695047  1.254594
  N    -4.529685  1.357623  0.116967
  N    -4.046826  4.542556  0.150801
  N    -4.905176  1.457609  3.941748
  N    -4.970077  5.233077  3.896188
  S    -5.776898  1.063191  2.604348
  S    -5.530539  4.488088  2.560734
  S    -3.024038  1.767428 -0.297636
  S    -2.527654  5.218644 -0.238580
  S    -3.315509  1.862269  3.701521
  S    -3.413940  5.795737  3.796353
