16  
    
  C     1.868253  5.062596  3.165418
  C     2.260607  8.662681  3.261040
  C     0.792296  4.561871  2.321424
  C     1.065847  8.151165  2.583661
  N     2.915903  5.342556  2.414242
  N     3.182805  8.997772  2.344362
  N     1.107924  4.301782  1.057249
  N     1.126656  8.004875  1.266564
  N    -0.030576  4.825856  4.809663
  N     0.442155  8.072329  5.047888
  S    -0.558126  4.093676  3.384034
  S    -0.306238  7.755335  3.574827
  S     2.707163  4.838113  0.852897
  S     2.642101  8.493922  0.876430
  S     1.629547  5.295513  4.855031
  S     2.016572  8.503141  5.017455
