16  
    
  C    -3.705139  1.862818  1.858803
  C    -3.964826  5.328543  1.788387
  C    -4.906049  1.366820  1.199044
  C    -5.079731  4.913289  1.048876
  N    -2.711539  2.101706  1.038661
  N    -2.912906  5.631427  1.029215
  N    -4.907754  1.367831 -0.134243
  N    -4.918081  4.852051 -0.271493
  N    -5.363165  1.501946  3.677291
  N    -5.775229  4.946714  3.517612
  S    -6.176464  1.136352  2.294935
  S    -6.433700  4.412736  2.046455
  S    -3.346116  1.838107 -0.517390
  S    -3.377642  5.430678 -0.483709
  S    -3.754234  1.880598  3.569629
  S    -4.234250  5.447373  3.489080
