16  
    
  C     2.051083  4.880356  3.197290
  C     2.038181  8.574838  3.248373
  C     0.871593  4.557826  2.469069
  C     0.788601  8.266203  2.581603
  N     3.094716  5.233946  2.432556
  N     3.117977  8.691404  2.489353
  N     1.097319  4.531221  1.174461
  N     0.995202  8.236855  1.266721
  N     0.069577  4.533007  4.855395
  N     0.356936  8.237740  5.164394
  S    -0.546680  4.175668  3.317795
  S    -0.476751  7.842165  3.757532
  S     2.652609  4.925153  0.862585
  S     2.574419  8.673752  0.978059
  S     1.649746  5.245862  4.887384
  S     1.912532  8.752906  4.999084
