16  
    
  C    -3.738232  1.918698  1.949586
  C    -3.527895  5.420807  1.970360
  C    -4.679553  1.075386  1.298729
  C    -4.804823  4.930404  1.399430
  N    -2.746510  2.430488  1.195281
  N    -2.518611  5.416749  1.080449
  N    -4.368619  0.763357  0.032475
  N    -4.681051  4.435537  0.155724
  N    -5.618390  1.399204  3.757010
  N    -5.175101  5.273644  3.938030
  S    -5.999539  0.564184  2.380171
  S    -6.072848  4.914073  2.602946
  S    -2.984780  1.659399 -0.339316
  S    -3.178363  4.827465 -0.345968
  S    -4.255400  2.298762  3.549676
  S    -3.525942  5.803570  3.668265
