16  
    
  C     0.737097  3.668421  3.148000
  C     1.134473  7.570771  2.905960
  C    -0.483673  3.453815  2.456935
  C     0.047290  7.002873  2.245555
  N     1.707778  4.081516  2.333825
  N     2.216345  7.622067  2.147496
  N    -0.373281  3.343231  1.138692
  N     0.230483  6.748726  0.954345
  N    -0.985675  3.261447  5.026739
  N    -0.781317  7.560013  4.594867
  S    -1.770768  3.099898  3.625922
  S    -1.387707  6.875550  3.174317
  S     1.206344  3.675162  0.826336
  S     1.800260  7.174442  0.634951
  S     0.657164  3.665457  4.918862
  S     0.851619  7.958599  4.536292
