16  
    
  C    -4.167553  1.584107  1.839536
  C    -3.974164  5.173684  1.873172
  C    -5.345780  0.912813  1.429963
  C    -5.119276  4.593672  1.343941
  N    -3.177643  1.742430  1.000612
  N    -3.025525  5.346639  0.948518
  N    -5.308394  0.550861  0.188838
  N    -5.051903  4.174613  0.105390
  N    -5.898480  1.778487  3.710340
  N    -5.796508  5.304560  3.725504
  S    -6.660005  0.946918  2.515497
  S    -6.471271  4.602865  2.338289
  S    -3.826486  1.062450 -0.426160
  S    -3.565557  4.610680 -0.409971
  S    -4.295932  1.991755  3.535098
  S    -4.175982  5.667620  3.539469
