16  
    
  C     0.671683  3.520198  2.695496
  C     0.664964  7.718037  2.712242
  C    -0.694329  3.380750  2.182171
  C    -0.537938  6.978617  2.125977
  N     1.649776  3.911856  1.842648
  N     1.584159  8.028946  1.810082
  N    -0.673583  3.370113  0.858308
  N    -0.488576  6.843821  0.806451
  N    -0.968213  3.259564  4.721316
  N    -1.046409  7.324706  4.644779
  S    -1.963116  3.095433  3.347980
  S    -1.793770  6.627389  3.282573
  S     0.904529  3.675696  0.319525
  S     0.938742  7.465990  0.333639
  S     0.625204  3.497706  4.405605
  S     0.540403  7.856986  4.429023
