16  
    
  C    -3.076751  2.151373  1.748354
  C    -3.002508  5.874185  1.974366
  C    -4.217798  1.630101  0.976614
  C    -4.293019  5.461166  1.471999
  N    -2.049357  2.508565  0.964207
  N    -2.112706  6.124570  1.034493
  N    -4.002952  1.487475 -0.348462
  N    -4.378931  5.344177  0.122019
  N    -5.001449  1.598784  3.509261
  N    -4.581837  5.476145  3.999660
  S    -5.485784  0.975344  2.061670
  S    -5.497878  5.316896  2.613008
  S    -2.489635  2.001337 -0.624801
  S    -2.845569  5.723715 -0.390097
  S    -3.428247  2.238170  3.445906
  S    -3.012679  6.036195  3.770128
