16  
    
  C    -5.050450  1.190062  1.742198
  C    -4.894724  4.761157  1.604086
  C    -6.164032  0.457229  1.132450
  C    -6.019040  4.116725  0.944247
  N    -3.915293  1.282519  1.004717
  N    -3.824678  5.031960  0.846749
  N    -5.936832  0.247564 -0.183461
  N    -5.761160  3.922783 -0.362140
  N    -6.848161  0.947786  3.598105
  N    -6.758702  4.636743  3.374782
  S    -7.486585  0.137106  2.207604
  S    -7.444088  3.915385  2.019553
  S    -4.409191  0.752474 -0.495906
  S    -4.303333  4.634019 -0.688042
  S    -5.250381  1.500449  3.448139
  S    -5.235712  5.239620  3.255643
