16  
    
  C     2.055509  5.008741  3.134420
  C     2.082930  8.763289  3.408252
  C     0.885018  4.521722  2.459707
  C     0.849419  8.380150  2.767195
  N     3.100943  5.284855  2.381303
  N     3.073630  8.879998  2.534576
  N     1.072796  4.462789  1.142592
  N     0.902800  8.284306  1.440991
  N     0.338058  4.405696  4.993408
  N     0.178353  8.590683  5.139960
  S    -0.505623  4.154474  3.529701
  S    -0.507145  8.087591  3.747148
  S     2.620717  4.919898  0.823423
  S     2.443018  8.652722  0.973135
  S     1.911328  4.804269  4.842042
  S     1.819583  8.909372  5.156624
