16  
    
  C    -0.688161  2.881950  2.599626
  C    -1.312795  6.556215  2.484538
  C    -1.915751  2.577640  1.950462
  C    -2.439062  5.996771  1.781988
  N     0.321820  3.083196  1.776840
  N    -0.254754  6.844353  1.743084
  N    -1.868620  2.429209  0.641431
  N    -2.168958  5.725235  0.491242
  N    -2.585991  2.915590  4.447075
  N    -2.953396  5.931177  4.321257
  S    -3.355270  2.459172  2.990876
  S    -3.721320  5.613226  2.907317
  S    -0.267690  2.675162  0.230719
  S    -0.682061  6.355623  0.245257
  S    -0.914409  3.292062  4.271353
  S    -1.420432  6.551884  4.219535
