16  
    
  C     1.191070  4.472853  3.161735
  C     1.648195  8.093883  3.064949
  C    -0.000777  3.967101  2.579188
  C     0.379364  7.963876  2.398148
  N     2.186324  4.613457  2.287114
  N     2.689436  7.982446  2.221911
  N    -0.096825  4.117351  1.250824
  N     0.423807  7.723148  1.095367
  N    -0.391328  4.185444  5.192188
  N    -0.171218  8.226845  4.891875
  S    -1.245427  3.804347  3.756153
  S    -0.984602  8.177458  3.434910
  S     1.521259  4.412895  0.742575
  S     2.072845  7.804745  0.742192
  S     1.167130  4.598110  4.867683
  S     1.511285  8.317014  4.750234
