16  
    
  C     1.082133  4.243207  2.831041
  C     1.576494  8.679144  2.964741
  C    -0.135885  3.837434  2.040553
  C     0.406353  8.128614  2.371594
  N     2.170693  4.655842  2.116160
  N     2.562221  8.925677  2.115136
  N     0.155738  3.597162  0.761809
  N     0.588204  7.875136  1.091758
  N    -0.856998  3.854516  4.483495
  N    -0.105422  8.465417  4.874830
  S    -1.469411  3.332920  2.996538
  S    -0.897498  8.067756  3.513030
  S     1.698393  4.205981  0.521931
  S     2.130036  8.391740  0.597160
  S     0.672446  4.348574  4.487511
  S     1.459779  8.869774  4.667163
