16  
    
  C     0.623667  3.762763  2.783607
  C     0.595641  7.676525  2.708304
  C    -0.634601  3.291358  2.175692
  C    -0.550651  6.965516  2.171756
  N     1.590844  3.924106  1.930512
  N     1.565355  7.880954  1.801406
  N    -0.646786  3.268111  0.849861
  N    -0.569858  6.657935  0.851075
  N    -0.955922  3.456923  4.779040
  N    -0.997733  7.326396  4.708204
  S    -1.822037  3.233181  3.360392
  S    -1.772566  6.630811  3.417577
  S     0.923410  3.737448  0.380867
  S     0.909983  7.273267  0.369028
  S     0.689211  3.617539  4.511361
  S     0.456621  8.050301  4.437122
