16  
    
  C    -2.717760  2.603750  2.311424
  C    -2.719242  6.381317  1.945440
  C    -3.802204  1.832526  1.731207
  C    -3.815938  5.773862  1.273061
  N    -1.762635  2.890306  1.411308
  N    -1.676246  6.786142  1.220366
  N    -3.738130  1.723048  0.382522
  N    -3.549326  5.588784  0.005078
  N    -4.398544  2.192761  4.240775
  N    -4.518009  5.624290  3.692893
  S    -5.074024  1.536297  2.816930
  S    -5.210638  5.313443  2.192536
  S    -2.288343  2.405106 -0.032918
  S    -2.035803  6.128788 -0.334594
  S    -2.878775  2.863863  4.025179
  S    -2.960928  6.357016  3.672072
