16  
    
  C     1.133332  4.392861  3.002944
  C     1.716497  8.512737  2.943368
  C    -0.027727  3.935184  2.275879
  C     0.455650  8.133261  2.332550
  N     2.156705  4.727102  2.237072
  N     2.774451  8.418927  2.145501
  N     0.180498  3.878260  0.960726
  N     0.512393  7.929003  1.003662
  N    -0.762011  4.010460  4.790474
  N    -0.056322  8.369760  4.845482
  S    -1.387390  3.633196  3.303489
  S    -0.866872  8.035316  3.441132
  S     1.705479  4.361233  0.718407
  S     2.083415  8.101606  0.619888
  S     0.903312  4.381288  4.713898
  S     1.536191  8.796440  4.682772
