16  
    
  C    -4.383662  0.924074  1.806191
  C    -4.720108  4.562361  1.637255
  C    -5.653708  0.686250  1.154684
  C    -5.912521  4.285782  0.840398
  N    -3.430427  1.400651  0.989008
  N    -3.738440  5.021569  0.881097
  N    -5.548772  0.768338 -0.141974
  N    -5.788205  4.493277 -0.456047
  N    -6.148868  0.640434  3.565354
  N    -6.593416  4.239180  3.280741
  S    -7.052134  0.439251  2.213964
  S    -7.278191  3.850227  1.756514
  S    -4.119696  1.301054 -0.532553
  S    -4.213006  5.016549 -0.718647
  S    -4.581832  1.094853  3.485749
  S    -4.944213  4.463218  3.354440
