16  
    
  C    -2.724254  2.617641  2.383446
  C    -2.626804  5.841892  1.984829
  C    -3.805115  1.900780  1.698279
  C    -3.867108  5.461955  1.305009
  N    -1.787901  3.030504  1.552389
  N    -1.596620  6.169546  1.187099
  N    -3.709375  1.804244  0.396912
  N    -3.739619  5.502828 -0.000176
  N    -4.373007  2.039278  4.216124
  N    -4.502917  5.456793  3.787552
  S    -4.980712  1.375519  2.824566
  S    -5.239820  5.030958  2.309090
  S    -2.261651  2.513403  0.014816
  S    -2.145257  6.022239 -0.335069
  S    -2.841092  2.693727  4.094131
  S    -2.975346  6.035856  3.699786
