16  
    
  C     0.443722  3.567337  2.984431
  C     0.453038  7.514978  2.872114
  C    -0.872449  3.380243  2.331435
  C    -0.866597  7.247978  2.348232
  N     1.450038  3.669925  2.113329
  N     1.360941  7.703568  1.923413
  N    -0.860998  3.667372  1.038881
  N    -0.941786  7.242904  1.014828
  N    -1.282243  3.034904  4.815614
  N    -1.177869  7.616668  4.891619
  S    -2.098917  3.052363  3.395683
  S    -2.132548  7.353444  3.590844
  S     0.775028  3.938409  0.612964
  S     0.658348  7.493702  0.470177
  S     0.357748  3.381960  4.716994
  S     0.462037  7.698401  4.624145
