16  
    
  C     2.144292  4.417640  3.036228
  C     1.968743  8.112020  3.130785
  C     0.948122  4.018390  2.355002
  C     0.853397  7.523788  2.499704
  N     3.180536  4.687201  2.226451
  N     3.058670  8.251244  2.372319
  N     1.194247  3.568933  1.126655
  N     1.137079  7.118789  1.253897
  N     0.296095  4.453168  4.771443
  N     0.074041  8.224551  4.827985
  S    -0.408411  3.968326  3.317877
  S    -0.583515  7.572801  3.484961
  S     2.752779  4.023765  0.735555
  S     2.690860  7.500623  0.959386
  S     1.878187  4.812631  4.762735
  S     1.716877  8.510929  4.827882
