16  
    
  C    -2.495744  2.509527  1.973456
  C    -2.419245  6.209013  2.146108
  C    -3.763074  2.149372  1.435422
  C    -3.570121  5.583235  1.468213
  N    -1.466159  2.556601  1.095509
  N    -1.370864  6.447545  1.311651
  N    -3.704460  1.852219  0.139671
  N    -3.329827  5.370546  0.194958
  N    -4.157835  2.461485  3.943644
  N    -4.257124  5.867601  3.886693
  S    -5.009536  1.970090  2.621859
  S    -4.988382  5.377863  2.464796
  S    -2.143646  2.180777 -0.344893
  S    -1.688372  5.722174 -0.161598
  S    -2.612950  2.932002  3.702092
  S    -2.711425  6.482988  3.830440
