16  
    
  C     2.957277  5.131336  3.197490
  C     2.918300  9.229514  3.763600
  C     1.808046  4.501338  2.627314
  C     1.769063  8.703152  3.079549
  N     4.039474  5.188815  2.371916
  N     3.990045  9.372220  3.006084
  N     1.853932  4.405712  1.281995
  N     1.973327  8.501839  1.777789
  N     1.159861  4.990500  5.086394
  N     1.122843  8.750208  5.650341
  S     0.477439  4.400780  3.700694
  S     0.465932  8.272462  4.155338
  S     3.413738  4.782712  0.846147
  S     3.534714  8.902653  1.487368
  S     2.719985  5.395273  4.965932
  S     2.634189  9.452830  5.471900
