16  
    
  C     2.200288  4.433027  3.031454
  C     2.037912  8.282437  3.129628
  C     1.027023  3.924393  2.269900
  C     0.843092  7.611651  2.597914
  N     3.374590  4.362286  2.401024
  N     3.088495  8.239604  2.322717
  N     1.304712  3.875012  0.963521
  N     0.954939  7.117777  1.369032
  N     0.239492  4.416338  4.672101
  N     0.094668  8.366491  4.919589
  S    -0.384805  3.878761  3.270663
  S    -0.526528  7.541393  3.572365
  S     2.981101  4.020797  0.834062
  S     2.547374  7.419773  0.932079
  S     1.861276  4.781503  4.745314
  S     1.632285  8.984927  4.730700
