16  
    
  C    -5.012145  1.104661  1.768623
  C    -4.854004  4.738808  1.688678
  C    -6.071926  0.446075  1.096848
  C    -5.942068  4.026532  1.064563
  N    -3.967543  1.228995  0.980733
  N    -3.828811  5.022855  0.900929
  N    -5.875652  0.217775 -0.189285
  N    -5.726180  3.900170 -0.228702
  N    -6.805796  0.932410  3.483608
  N    -6.736735  4.621674  3.422558
  S    -7.392271  0.128559  2.191834
  S    -7.374107  3.910250  2.084160
  S    -4.392119  0.806855 -0.508129
  S    -4.263341  4.628257 -0.651477
  S    -5.241573  1.518726  3.432304
  S    -5.190479  5.205928  3.282096
