16  
    
  C    -2.597027  2.496972  2.315171
  C    -2.728643  5.829891  2.035247
  C    -3.664929  1.781632  1.726184
  C    -3.945771  5.419389  1.334389
  N    -1.620395  2.893313  1.484179
  N    -1.724570  6.089377  1.236569
  N    -3.623116  1.792284  0.374890
  N    -3.789111  5.345701  0.019694
  N    -4.401813  2.016478  4.205303
  N    -4.524447  5.532414  3.835706
  S    -5.070665  1.439676  2.759779
  S    -5.131273  4.920398  2.365357
  S    -2.215087  2.587364 -0.048424
  S    -2.179423  5.791437 -0.277243
  S    -2.802017  2.521265  4.073798
  S    -2.881955  5.806330  3.784171
