16  
    
  C     0.630935  3.697201  3.194195
  C     1.079619  7.576178  2.725535
  C    -0.516871  3.394390  2.380699
  C    -0.023016  7.041458  2.073984
  N     1.641234  4.112751  2.424973
  N     2.188402  7.682176  2.002032
  N    -0.244583  3.230606  1.105581
  N     0.154546  6.876810  0.757185
  N    -1.196893  3.110702  4.864799
  N    -0.712650  7.194555  4.595911
  S    -1.835673  2.845160  3.357420
  S    -1.364161  6.701360  3.114106
  S     1.246940  3.861310  0.895422
  S     1.771682  7.256857  0.483966
  S     0.376610  3.675267  4.957856
  S     0.813823  7.837230  4.455059
