16  
    
  C     3.080873  4.918013  3.393232
  C     3.011442  9.022842  3.763309
  C     1.839083  4.690257  2.662540
  C     1.702473  8.698814  3.251782
  N     4.163505  5.103376  2.643523
  N     3.996351  8.932136  2.894103
  N     2.010322  4.612235  1.361822
  N     1.756832  8.225583  2.036943
  N     1.250606  5.001939  5.175075
  N     1.536091  9.252793  5.770910
  S     0.489030  4.650877  3.768706
  S     0.501192  8.764614  4.611284
  S     3.669841  4.871704  1.065713
  S     3.312457  8.386970  1.504743
  S     2.878204  5.269270  5.074134
  S     3.117062  9.307510  5.437759
