16  
    
  C     0.028183  3.638372  2.681575
  C     0.348362  7.407318  2.672539
  C    -1.016394  2.946259  1.983653
  C    -0.924112  7.204180  1.986649
  N     1.121492  3.768946  1.956881
  N     1.382054  7.601186  1.851393
  N    -0.804456  2.735487  0.695100
  N    -0.879601  7.301297  0.645635
  N    -1.698519  3.187625  4.502465
  N    -1.475909  7.267600  4.522823
  S    -2.327973  2.548401  3.114261
  S    -2.308860  7.192000  3.096320
  S     0.701281  3.378075  0.404974
  S     0.671666  7.466321  0.309010
  S    -0.192304  3.906332  4.404589
  S     0.182255  7.498820  4.423924
