16  
    
  C    -1.516171  2.788080  2.042118
  C    -1.165931  6.768540  2.172599
  C    -2.591471  2.048163  1.417725
  C    -2.437390  6.357887  1.621106
  N    -0.511178  3.177818  1.264492
  N    -0.187137  6.824885  1.299833
  N    -2.285970  1.760483  0.166736
  N    -2.514178  6.245760  0.286020
  N    -3.369316  2.406361  3.852333
  N    -2.891316  6.775956  4.210653
  S    -3.892597  1.639200  2.491110
  S    -3.698940  6.297030  2.884457
  S    -0.824004  2.430441 -0.182535
  S    -0.911765  6.394914 -0.203636
  S    -1.874956  3.094341  3.740043
  S    -1.298424  7.109803  3.927366
