16  
    
  C    -1.504792  2.786846  2.136763
  C    -1.232949  6.723883  2.183548
  C    -2.541287  2.081910  1.460703
  C    -2.503640  6.322816  1.620623
  N    -0.516672  3.145569  1.305616
  N    -0.244578  6.808042  1.262797
  N    -2.234042  1.662409  0.224923
  N    -2.523450  6.190211  0.280376
  N    -3.376644  2.438107  3.841879
  N    -2.907138  6.634485  4.237104
  S    -3.923588  1.636668  2.505259
  S    -3.751886  6.256265  2.837189
  S    -0.819085  2.405713 -0.175256
  S    -0.921166  6.331606 -0.201395
  S    -1.853605  3.037683  3.770616
  S    -1.305342  7.091104  3.959473
