16  
    
  C    -6.000818  0.913865  1.309773
  C    -6.035492  4.401398  1.575426
  C    -7.270109  0.547187  0.630841
  C    -7.191659  3.886923  0.886386
  N    -4.908316  1.067459  0.518675
  N    -5.061223  4.784372  0.778459
  N    -7.093337  0.536031 -0.678833
  N    -7.148772  3.903770 -0.443080
  N    -7.778853  0.269211  3.158331
  N    -7.682783  3.897842  3.482723
  S    -8.608619  0.221157  1.771553
  S    -8.397255  3.296048  2.075877
  S    -5.504956  0.800469 -1.007244
  S    -5.635299  4.477293 -0.769473
  S    -6.186678  0.652570  3.092207
  S    -6.065717  4.197175  3.401446
