16  
    
  C    -6.074691  0.753497  1.346825
  C    -5.986104  4.412659  1.729051
  C    -7.309194  0.334880  0.724238
  C    -7.221788  3.971842  1.052935
  N    -5.158585  1.184118  0.504316
  N    -5.022446  4.778879  0.905401
  N    -7.185008  0.281419 -0.588848
  N    -7.096060  3.893131 -0.250143
  N    -7.719170  0.233666  3.222556
  N    -7.774052  3.729658  3.554281
  S    -8.528742  0.012180  1.801301
  S    -8.458902  3.339516  2.059663
  S    -5.706450  0.901888 -0.988899
  S    -5.607764  4.443463 -0.620066
  S    -6.100712  0.791223  3.086990
  S    -6.232836  4.342208  3.421475
