16  
    
  C     2.530769  4.668344  3.526768
  C     2.517167  8.769052  3.431035
  C     1.345991  4.303383  2.777593
  C     1.271239  8.250628  2.927723
  N     3.519210  5.026995  2.728555
  N     3.439215  8.877758  2.525413
  N     1.498968  4.300587  1.464228
  N     1.317289  7.883201  1.672179
  N     0.558140  4.413828  5.150112
  N     1.025699  8.416355  5.486452
  S    -0.041814  3.930808  3.751219
  S     0.051603  8.056817  4.138073
  S     3.063448  4.756939  1.101522
  S     2.796504  8.384531  1.060511
  S     2.108548  4.942062  5.238791
  S     2.580099  8.851144  5.194255
