16  
    
  C     3.177882  5.220519  3.451022
  C     3.601983  9.118227  3.349931
  C     2.033366  4.515426  2.830091
  C     2.381938  8.609995  2.834079
  N     4.129979  5.523850  2.566510
  N     4.645342  9.260719  2.496962
  N     2.071811  4.574320  1.481333
  N     2.548909  8.331499  1.526149
  N     1.359425  5.163983  5.279703
  N     2.095438  8.841156  5.352028
  S     0.691040  4.383427  3.966845
  S     1.150165  8.396286  4.111529
  S     3.620669  5.109878  1.066739
  S     4.026001  8.913343  1.023718
  S     2.954061  5.409174  5.203061
  S     3.573803  9.467364  5.015878
