16  
    
  C     2.923290  5.112533  3.197987
  C     2.813596  9.099783  3.478026
  C     1.700024  4.555974  2.666958
  C     1.744256  8.369422  2.812893
  N     3.816956  5.490768  2.250636
  N     3.793430  9.615290  2.814966
  N     1.817286  4.203877  1.375958
  N     2.049060  8.192832  1.539496
  N     1.284869  4.803722  5.243760
  N     1.150861  8.634667  5.350138
  S     0.554437  4.163565  3.882637
  S     0.448740  8.011821  4.015353
  S     3.292003  4.844521  0.825348
  S     3.528462  9.105912  1.259822
  S     2.755327  5.476122  4.911678
  S     2.666171  9.216529  5.196765
