16  
    
  C     2.041134  4.303163  3.375628
  C     1.702697  7.743540  3.045897
  C     0.819061  4.017440  2.709318
  C     0.434842  7.522103  2.377338
  N     3.000331  4.679884  2.534282
  N     2.753848  7.930937  2.229129
  N     0.807745  4.134457  1.400618
  N     0.477379  7.562493  1.031929
  N     0.261331  3.998951  5.212450
  N    -0.072780  7.460252  4.899014
  S    -0.609600  3.682407  3.806525
  S    -0.935918  7.266288  3.499374
  S     2.342008  4.531877  1.012600
  S     2.121886  7.809916  0.687866
  S     1.832089  4.337358  5.100815
  S     1.561834  7.632726  4.758642
