16  
    
  C     3.173682  5.185761  3.384414
  C     3.348932  9.226213  3.740528
  C     2.023011  4.709789  2.726202
  C     2.160741  8.823011  3.030542
  N     4.254566  5.284261  2.576195
  N     4.472830  9.351128  2.972116
  N     2.136096  4.469728  1.438152
  N     2.306347  8.669437  1.696236
  N     1.356874  4.765861  5.275158
  N     1.331823  8.761225  5.434211
  S     0.661976  4.398533  3.803629
  S     0.752031  8.645380  3.844537
  S     3.769755  4.810940  1.067834
  S     3.947306  8.926909  1.378306
  S     2.888858  5.309454  5.137145
  S     2.942295  9.276186  5.490761
