16  
    
  C    -5.430179  1.045284  1.267723
  C    -5.361846  5.012520  1.458892
  C    -6.573717  0.470919  0.573510
  C    -6.469152  4.412616  0.724712
  N    -4.379687  1.445868  0.543710
  N    -4.303308  5.359271  0.740430
  N    -6.448565  0.424386 -0.737171
  N    -6.240989  4.208356 -0.570038
  N    -7.257135  0.495549  3.115673
  N    -7.024415  4.228356  3.300628
  S    -7.918144  0.137198  1.650201
  S    -7.817470  4.007922  1.844229
  S    -4.945572  1.148874 -1.028339
  S    -4.744341  4.893788 -0.821149
  S    -5.723911  1.149479  2.971334
  S    -5.664630  5.217252  3.230939
