16  
    
  C     2.210118  4.331007  3.023841
  C     2.077383  8.469508  3.131768
  C     1.010329  3.975820  2.215392
  C     0.963484  7.703663  2.625570
  N     3.228049  4.568049  2.211843
  N     3.028292  8.623606  2.206425
  N     1.260146  3.534391  0.960834
  N     1.097188  7.216757  1.408999
  N     0.310653  4.218424  4.790038
  N     0.237329  8.589765  4.904014
  S    -0.426572  3.901266  3.331387
  S    -0.447235  7.777788  3.618260
  S     2.810182  4.078057  0.699446
  S     2.585758  7.684491  0.850146
  S     2.002595  4.561299  4.737624
  S     1.785089  9.106960  4.717826
