16  
    
  C    -3.415904  1.789523  1.669156
  C    -3.634828  5.566393  1.741738
  C    -4.556687  1.196380  1.053362
  C    -4.889441  5.169839  1.056348
  N    -2.408877  1.877100  0.825300
  N    -2.620464  5.900030  0.956912
  N    -4.417370  0.865713 -0.200186
  N    -4.693162  5.048627 -0.236123
  N    -5.109356  1.476940  3.489830
  N    -5.445117  5.158269  3.527847
  S    -5.831926  0.803341  2.180252
  S    -6.252655  4.870030  2.069621
  S    -2.863955  1.265080 -0.559532
  S    -3.168776  5.564606 -0.669195
  S    -3.593095  2.089511  3.295286
  S    -3.883775  5.628897  3.456732
