16  
    
  C     1.947409  4.402804  3.393473
  C     1.669709  7.755749  3.002178
  C     0.701059  3.983634  2.752123
  C     0.379395  7.546392  2.346748
  N     2.999191  4.456704  2.557247
  N     2.722243  7.961662  2.216491
  N     0.730716  4.150179  1.424730
  N     0.465474  7.652837  1.020773
  N     0.177147  3.978678  5.275675
  N    -0.030923  7.434199  4.964171
  S    -0.543899  3.704553  3.766028
  S    -0.882946  7.205610  3.522538
  S     2.345554  4.510340  0.983278
  S     2.140316  7.817128  0.700984
  S     1.818176  4.303501  5.106195
  S     1.619763  7.642102  4.753535
