16  
    
  C    -4.030953  1.391791  1.667906
  C    -4.057485  5.151995  1.960229
  C    -5.355455  1.338935  1.024618
  C    -5.265792  5.025074  1.266798
  N    -2.970323  1.355371  0.879080
  N    -3.026846  5.338381  1.129942
  N    -5.212890  1.107839 -0.271674
  N    -5.242871  5.206361 -0.039826
  N    -5.848793  1.596228  3.560027
  N    -5.872236  4.835897  3.747000
  S    -6.717706  1.319579  2.105688
  S    -6.684123  4.913806  2.274795
  S    -3.535421  1.122444 -0.673572
  S    -3.642055  5.375773 -0.400701
  S    -4.208961  1.678277  3.373268
  S    -4.266484  5.247395  3.683798
