16  
    
  C    -4.813654  1.063675  1.669906
  C    -4.729078  4.742136  1.824593
  C    -5.910398  0.375855  1.060082
  C    -5.849381  4.082541  1.167982
  N    -3.797119  1.370308  0.890312
  N    -3.758926  5.094720  0.977748
  N    -5.807896  0.254700 -0.263894
  N    -5.694171  3.829096 -0.138201
  N    -6.787667  0.936072  3.513894
  N    -6.594417  4.534179  3.603411
  S    -7.327383  0.103390  2.121000
  S    -7.213958  3.892256  2.184888
  S    -4.326071  0.863456 -0.638175
  S    -4.236373  4.461820 -0.480044
  S    -5.194493  1.456758  3.346943
  S    -5.061027  5.159574  3.533381
