16  
    
  C    -5.392523  1.201079  1.300243
  C    -5.492223  4.845360  1.587751
  C    -6.565245  0.665495  0.654725
  C    -6.701890  4.450860  0.930296
  N    -4.411176  1.451145  0.444969
  N    -4.476173  4.949028  0.756791
  N    -6.375705  0.491329 -0.634252
  N    -6.607751  4.333476 -0.376460
  N    -7.167087  0.730889  3.125972
  N    -7.262142  4.691473  3.413721
  S    -7.785568  0.079937  1.771666
  S    -8.002791  4.121106  2.010718
  S    -4.878148  1.000958 -1.036898
  S    -5.011534  4.685664 -0.799877
  S    -5.577113  1.179048  2.986279
  S    -5.612681  4.883099  3.370401
