16  
    
  C     3.209805  4.944008  3.477721
  C     3.302345  9.237465  3.732438
  C     1.954444  4.727188  2.752867
  C     2.148769  8.863081  2.949147
  N     4.209056  5.180655  2.652064
  N     4.449084  9.289751  3.123191
  N     2.118077  4.494745  1.428001
  N     2.444518  8.622357  1.663152
  N     1.396813  5.106425  5.198474
  N     1.415069  8.837972  5.501653
  S     0.565519  4.552707  3.793160
  S     0.669604  8.777797  3.952503
  S     3.745686  4.805969  1.164200
  S     4.131987  9.009302  1.512845
  S     3.066316  5.248441  5.147313
  S     3.101243  9.267548  5.401752
