16  
    
  C     3.513824  5.300580  3.588628
  C     3.481524  9.025474  3.501456
  C     2.244667  4.972455  2.933320
  C     2.356106  8.369971  2.845469
  N     4.557056  5.500775  2.807567
  N     4.466909  9.483055  2.801047
  N     2.397086  4.893850  1.609048
  N     2.492185  8.407898  1.518063
  N     1.812581  4.970953  5.440670
  N     1.759709  8.663190  5.357738
  S     0.934929  4.757089  4.012321
  S     1.009074  8.097088  4.014553
  S     3.952367  5.346080  1.262163
  S     4.072341  9.100336  1.209465
  S     3.451243  5.420132  5.289659
  S     3.285646  9.327369  5.176068
