16  
    
  C     1.228031  4.307773  3.104257
  C     1.647454  8.230372  2.986114
  C    -0.038621  4.061228  2.488545
  C     0.363856  8.050952  2.325219
  N     2.175171  4.614533  2.222307
  N     2.740208  8.067625  2.248084
  N     0.006913  4.043875  1.138420
  N     0.492408  7.876813  1.005542
  N    -0.554290  4.181456  5.026465
  N    -0.077959  8.289098  4.869929
  S    -1.275446  3.724020  3.617637
  S    -0.956342  8.118365  3.480524
  S     1.535976  4.422592  0.743602
  S     2.099294  7.852174  0.701980
  S     1.096471  4.554264  4.899758
  S     1.554555  8.442523  4.724268
