16  
    
  C    -1.568035  2.655943  2.400589
  C    -1.642569  6.173782  2.350746
  C    -2.734012  2.276536  1.686384
  C    -2.818855  5.691765  1.693839
  N    -0.508842  2.789898  1.640632
  N    -0.609909  6.402505  1.555790
  N    -2.538636  1.901947  0.439345
  N    -2.728050  5.747877  0.363079
  N    -3.528057  2.485045  4.104115
  N    -3.403868  6.116004  4.243220
  S    -4.205747  2.007228  2.657093
  S    -4.141905  5.465441  2.876429
  S    -0.931866  2.215042  0.104917
  S    -1.113718  6.045395  0.016443
  S    -1.915293  2.902024  4.069504
  S    -1.813364  6.522197  4.135137
