16  
    
  C    -1.742696  2.284325  1.936300
  C    -1.836976  6.571290  2.067023
  C    -3.044128  2.124601  1.323782
  C    -2.903221  5.647757  1.558118
  N    -0.721992  2.349089  1.086467
  N    -0.756856  6.761410  1.271787
  N    -2.997766  1.974352  0.010950
  N    -2.616497  5.247987  0.355248
  N    -3.423111  2.254831  3.873314
  N    -3.463400  6.002147  3.998914
  S    -4.255916  1.821375  2.524748
  S    -4.277284  5.503794  2.632535
  S    -1.424776  2.260457 -0.433137
  S    -1.201731  5.904722 -0.063212
  S    -1.780765  2.547733  3.646112
  S    -2.158983  7.007223  3.726064
