16  
    
  C     1.898385  4.561343  3.370069
  C     1.707976  7.677726  3.082227
  C     0.809723  3.933832  2.685193
  C     0.445777  7.409994  2.352017
  N     2.910013  4.798273  2.554975
  N     2.710040  7.904525  2.252291
  N     0.854561  3.946349  1.333464
  N     0.481127  7.388251  1.019601
  N     0.332555  4.014166  5.289684
  N    -0.205841  7.522580  4.871992
  S    -0.491595  3.714829  3.789086
  S    -0.946057  7.381186  3.361806
  S     2.402912  4.632556  0.969693
  S     2.100623  7.782688  0.733776
  S     1.910446  4.426337  5.050552
  S     1.477159  7.662751  4.813627
