16  
    
  C    -0.319911  3.240360  2.618646
  C    -0.211866  7.080776  2.408832
  C    -1.547961  2.589395  2.047873
  C    -1.347282  6.280198  1.806646
  N     0.672181  3.394088  1.742927
  N     0.771435  7.333188  1.549683
  N    -1.495811  2.460935  0.723214
  N    -1.179595  5.925015  0.553018
  N    -1.948298  2.903948  4.633695
  N    -1.998804  6.709309  4.223498
  S    -2.781249  2.495301  3.251844
  S    -2.596246  5.902037  2.897227
  S     0.028805  2.946431  0.246644
  S     0.209301  6.656308  0.069521
  S    -0.284900  3.293908  4.359361
  S    -0.426725  7.328589  4.097140
