16  
    
  C    -5.341929  1.305158  1.449338
  C    -5.350884  4.593171  1.576742
  C    -6.583675  0.910330  0.871372
  C    -6.639610  4.139463  1.057436
  N    -4.322493  1.188347  0.605162
  N    -4.438201  4.661599  0.663026
  N    -6.509373  0.701584 -0.421699
  N    -6.640741  3.937345 -0.241657
  N    -7.074390  1.100903  3.350705
  N    -6.847419  4.850770  3.496181
  S    -7.942888  0.802972  1.975547
  S    -7.800338  4.063422  2.319143
  S    -4.937616  0.747925 -0.839273
  S    -5.093299  4.320913 -0.791692
  S    -5.490263  1.317117  3.140994
  S    -5.197104  4.755036  3.288165
