16  
    
  C    -1.123870  3.061402  2.396985
  C    -0.783088  6.921868  2.255565
  C    -2.379270  2.804388  1.763774
  C    -2.050933  6.548055  1.680002
  N    -0.085548  3.090446  1.562766
  N     0.265669  6.875245  1.398580
  N    -2.321896  2.500087  0.475811
  N    -2.003502  6.307216  0.346215
  N    -2.941849  3.167333  4.193147
  N    -2.361803  6.543860  4.292223
  S    -3.763726  3.031822  2.791795
  S    -3.254260  6.417401  2.911216
  S    -0.708960  2.664076  0.068057
  S    -0.474370  6.618961 -0.086365
  S    -1.314060  3.267282  4.119056
  S    -0.714805  6.916232  4.036484
