16  
    
  C    -2.088462  2.469488  1.974238
  C    -2.078627  5.730019  2.207615
  C    -3.310358  1.952371  1.406863
  C    -3.408923  5.572832  1.525330
  N    -1.088555  2.531841  1.122862
  N    -1.057348  5.762896  1.385012
  N    -3.299911  1.768973  0.085577
  N    -3.314572  5.442550  0.205098
  N    -3.826331  2.355739  3.888981
  N    -3.879185  5.856425  4.060944
  S    -4.676170  1.923956  2.524855
  S    -4.708355  5.422139  2.671219
  S    -1.746412  2.068441 -0.375599
  S    -1.732473  5.766971 -0.108756
  S    -2.198503  2.546970  3.662608
  S    -2.225425  6.140126  3.884398
