16  
    
  C     3.008927  5.314038  3.849577
  C     2.595446  8.458282  3.151607
  C     1.704854  5.130742  3.269641
  C     1.292762  8.187234  2.602057
  N     3.975119  5.135365  2.952476
  N     3.615722  8.508494  2.293640
  N     1.689582  4.615463  2.050571
  N     1.323342  8.099139  1.270062
  N     1.262693  5.621285  5.788598
  N     1.050776  8.897093  5.035115
  S     0.407372  5.359324  4.414547
  S     0.129394  8.235532  3.856240
  S     3.275246  4.739768  1.483240
  S     2.980484  8.219515  0.810296
  S     2.893511  5.816941  5.580426
  S     2.656133  9.053381  4.760678
