16  
    
  C    -0.165611  3.424324  2.569018
  C    -0.090694  6.961038  2.564357
  C    -1.091516  2.522770  2.022271
  C    -1.277659  6.639107  1.859451
  N     0.878659  3.666338  1.788129
  N     0.860444  7.375521  1.740701
  N    -0.902723  2.254183  0.744331
  N    -1.168840  6.688441  0.518549
  N    -1.924542  2.836539  4.426858
  N    -1.779432  6.533082  4.360015
  S    -2.570938  2.323849  2.935681
  S    -2.585921  6.183672  2.924393
  S     0.423016  3.119156  0.276204
  S     0.378134  7.204638  0.212913
  S    -0.396552  3.474327  4.292393
  S    -0.180842  6.926316  4.263155
