16  
    
  C    -5.935983  0.798409  1.537357
  C    -6.100552  4.397125  1.719551
  C    -7.098933  0.182425  0.929929
  C    -7.324556  4.073959  0.969819
  N    -5.069416  1.258604  0.622432
  N    -4.966055  4.655770  1.021048
  N    -7.022165  0.052719 -0.404174
  N    -7.066650  4.026735 -0.355688
  N    -7.479922  0.274635  3.511444
  N    -8.002645  4.118513  3.503392
  S    -8.346954 -0.201351  2.063197
  S    -8.720572  3.886865  2.013285
  S    -5.646214  0.815242 -0.829634
  S    -5.487775  4.463453 -0.537959
  S    -6.016536  1.096655  3.256152
  S    -6.423634  4.603641  3.390569
