16  
    
  C     0.033075  3.619929  2.670971
  C     0.344434  7.427131  2.670435
  C    -1.021443  2.978161  1.979260
  C    -0.920882  7.197873  1.986315
  N     1.131007  3.770093  1.947476
  N     1.382490  7.599546  1.849784
  N    -0.807618  2.721468  0.698263
  N    -0.879502  7.286084  0.652406
  N    -1.719075  3.195296  4.491781
  N    -1.486183  7.257582  4.516029
  S    -2.330206  2.540460  3.118429
  S    -2.298753  7.186815  3.094890
  S     0.689736  3.368674  0.401740
  S     0.678091  7.459217  0.296309
  S    -0.196529  3.919643  4.397618
  S     0.174452  7.493201  4.430307
