16  
    
  C     0.033298  3.658425  2.602000
  C     0.301433  7.541625  2.635402
  C    -1.073989  2.846588  2.008728
  C    -0.958164  7.203696  1.983642
  N     1.056412  3.829833  1.752265
  N     1.402729  7.695879  1.880523
  N    -0.973442  2.771487  0.689783
  N    -0.761613  7.003941  0.665012
  N    -1.808280  3.379313  4.393878
  N    -1.473008  7.176961  4.523499
  S    -2.373229  2.598866  3.095754
  S    -2.319379  7.027556  3.105204
  S     0.562471  3.166944  0.317238
  S     0.782831  7.306749  0.350863
  S    -0.274539  4.062312  4.276658
  S     0.208930  7.472480  4.399863
