16  
    
  C    -1.750136  2.265941  1.920982
  C    -1.845343  6.578219  2.053716
  C    -3.044377  2.129689  1.333314
  C    -2.907435  5.662767  1.547248
  N    -0.707780  2.354697  1.081910
  N    -0.739739  6.740764  1.284443
  N    -2.992924  1.975858  0.014727
  N    -2.606056  5.255148  0.345901
  N    -3.430859  2.269748  3.869539
  N    -3.465917  6.003509  3.998601
  S    -4.260531  1.815972  2.520208
  S    -4.288290  5.503766  2.633130
  S    -1.417962  2.262450 -0.436576
  S    -1.190210  5.908568 -0.075444
  S    -1.779216  2.540634  3.643275
  S    -2.154235  7.007256  3.727864
