16  
    
  C     2.330233  4.773814  3.313006
  C     2.402345  8.663358  3.509530
  C     1.095454  4.463082  2.651282
  C     1.153847  8.358171  2.869364
  N     3.304399  5.007052  2.460282
  N     3.373197  8.856801  2.643131
  N     1.225311  4.304641  1.346267
  N     1.200038  8.394082  1.541545
  N     0.631222  4.252318  5.162060
  N     0.556536  8.733608  5.371657
  S    -0.146474  3.835173  3.736192
  S    -0.164035  8.146003  3.985872
  S     2.726518  4.776643  0.903874
  S     2.779951  8.626890  1.134055
  S     2.171402  4.706616  5.035686
  S     2.216349  9.054489  5.202410
