16  
    
  C    -3.602553  1.763828  2.047962
  C    -3.339339  5.323255  2.067242
  C    -4.679088  1.008409  1.393874
  C    -4.628979  4.936464  1.494735
  N    -2.512096  1.956367  1.310045
  N    -2.388509  5.287913  1.142312
  N    -4.404686  0.807323  0.114280
  N    -4.615877  4.601334  0.221870
  N    -5.552812  1.482201  3.737487
  N    -5.010570  5.359783  4.000206
  S    -6.143126  0.853254  2.344690
  S    -5.926016  4.923501  2.639713
  S    -2.862189  1.326134 -0.175048
  S    -3.031562  4.923712 -0.324318
  S    -4.007162  1.996120  3.717746
  S    -3.434542  5.749613  3.827370
