16  
    
  C    -3.166050  1.879493  1.871517
  C    -3.114563  5.777910  2.057369
  C    -4.258524  1.438729  1.071255
  C    -4.352874  5.333650  1.522010
  N    -2.108829  2.152365  1.099273
  N    -2.130783  6.067335  1.178041
  N    -4.030249  1.131119 -0.195753
  N    -4.300594  5.247433  0.196010
  N    -5.128552  1.660655  3.480254
  N    -4.830549  5.386993  4.067113
  S    -5.720199  1.146361  1.981137
  S    -5.659623  5.065797  2.665936
  S    -2.476988  1.719535 -0.470106
  S    -2.864431  5.767831 -0.365431
  S    -3.511749  2.143356  3.539397
  S    -3.229603  5.800335  3.829816
