16  
    
  C    -4.571796  1.158268  1.571012
  C    -4.829097  4.677184  1.665116
  C    -5.840537  0.871081  0.905892
  C    -6.043874  4.423830  0.960524
  N    -3.534433  1.207111  0.733812
  N    -3.811104  4.860255  0.833308
  N    -5.819298  0.873019 -0.397735
  N    -5.999329  4.428126 -0.367285
  N    -6.417371  0.730677  3.357765
  N    -6.604691  4.157523  3.412547
  S    -7.243723  0.618051  1.864846
  S    -7.402933  4.121832  1.950889
  S    -4.142924  0.929725 -0.796030
  S    -4.391174  4.611605 -0.704413
  S    -4.709277  0.913955  3.217948
  S    -4.961180  4.566805  3.436733
