16  
    
  C    -0.403804  3.431911  2.651043
  C    -0.218984  7.066963  2.522624
  C    -1.442117  2.528363  2.098412
  C    -1.412870  6.603253  1.801631
  N     0.703285  3.488155  1.909343
  N     0.849949  7.158025  1.692815
  N    -1.122233  2.147886  0.860811
  N    -1.169698  6.353691  0.518460
  N    -2.260809  3.085838  4.482519
  N    -2.251354  6.899767  4.218604
  S    -2.785355  2.289259  3.104006
  S    -2.838351  6.526793  2.738532
  S     0.349962  2.802898  0.453764
  S     0.423204  6.667869  0.185940
  S    -0.692794  3.762470  4.344874
  S    -0.684981  7.381066  4.218394
