16  
    
  C    -4.701961  1.121107  1.447033
  C    -4.722609  4.740978  1.974534
  C    -5.975997  0.783537  0.801173
  C    -5.907120  4.204995  1.283450
  N    -3.663208  1.320640  0.680541
  N    -3.676877  4.891679  1.184658
  N    -5.846765  0.608116 -0.509575
  N    -5.743299  3.997249 -0.037021
  N    -6.516324  0.833554  3.250363
  N    -6.448756  4.476900  3.809330
  S    -7.334468  0.336231  1.895027
  S    -7.239654  4.047773  2.371610
  S    -4.174757  0.859285 -0.886645
  S    -4.160545  4.394374 -0.328808
  S    -4.969249  1.186524  3.166544
  S    -4.826109  4.984839  3.707155
