16  
    
  C    -3.370638  1.711373  1.558684
  C    -3.737670  5.357924  1.659865
  C    -4.598395  1.121438  0.986695
  C    -4.973321  4.962854  1.050379
  N    -2.365950  1.834956  0.683428
  N    -2.782399  5.722725  0.825066
  N    -4.436292  0.881873 -0.296021
  N    -4.931925  4.862258 -0.262690
  N    -5.062854  1.451003  3.504784
  N    -5.538085  5.238806  3.528990
  S    -5.806187  0.936937  2.152282
  S    -6.307201  4.719163  2.187849
  S    -2.900660  1.355772 -0.761685
  S    -3.354408  5.291871 -0.741191
  S    -3.614040  2.150077  3.290478
  S    -3.943955  5.558552  3.337662
