16  
    
  C    -4.258897  1.504490  2.034651
  C    -4.603311  5.209153  1.703031
  C    -5.442954  0.948920  1.332682
  C    -5.900947  4.722443  1.087366
  N    -3.250975  1.755774  1.213637
  N    -3.630176  5.421196  0.845587
  N    -5.204392  0.633718  0.077600
  N    -5.763021  4.424599 -0.209637
  N    -6.160287  1.517101  3.699383
  N    -6.258750  5.047954  3.654232
  S    -6.875988  0.915422  2.337276
  S    -7.179970  4.569982  2.273378
  S    -3.702681  1.224262 -0.263823
  S    -4.189351  4.826552 -0.593221
  S    -4.558768  1.974642  3.718998
  S    -4.625385  5.466418  3.396759
