16  
    
  C     0.494648  3.786365  2.892645
  C     0.866972  7.550786  2.624257
  C    -0.494993  3.068157  2.148919
  C    -0.291329  7.134773  1.969255
  N     1.612586  4.125630  2.201911
  N     1.808845  8.064353  1.882132
  N    -0.227748  2.889958  0.865432
  N    -0.225023  7.209918  0.647104
  N    -1.473437  3.160714  4.488905
  N    -0.689501  6.851438  4.492122
  S    -1.993208  2.611200  3.046247
  S    -1.529136  6.461339  3.096436
  S     1.223133  3.652178  0.594335
  S     1.258964  7.826554  0.297686
  S     0.111315  3.739100  4.582061
  S     0.826939  7.507866  4.320402
