16  
    
  C     2.307412  4.790340  3.299030
  C     2.418790  8.688268  3.496344
  C     1.091714  4.422915  2.641652
  C     1.147714  8.360456  2.866615
  N     3.300679  4.973823  2.457935
  N     3.380297  8.881075  2.626602
  N     1.189668  4.326246  1.330192
  N     1.189278  8.392135  1.539426
  N     0.649893  4.256234  5.130350
  N     0.536477  8.714925  5.358397
  S    -0.139883  3.839073  3.740360
  S    -0.172832  8.161836  3.971128
  S     2.707512  4.792275  0.916228
  S     2.756500  8.619256  1.138648
  S     2.169043  4.706969  5.023982
  S     2.183679  9.059442  5.215538
