16  
    
  C     0.717286  3.917950  3.009491
  C     0.640150  7.512511  2.754630
  C    -0.530464  3.481327  2.367518
  C    -0.484101  6.839563  2.241119
  N     1.706712  4.007271  2.089606
  N     1.581773  7.752598  1.868789
  N    -0.357680  2.939779  1.141513
  N    -0.409933  6.618616  0.961139
  N    -1.178665  3.896463  4.793476
  N    -1.024512  7.360799  4.712940
  S    -1.830403  3.198258  3.477892
  S    -1.773204  6.722075  3.368324
  S     1.166294  3.376195  0.691949
  S     1.115306  7.159606  0.412830
  S     0.452019  4.403096  4.644444
  S     0.549071  7.836812  4.424006
