16  
    
  C    -5.571294  0.792971  1.537878
  C    -5.555979  4.692796  1.211746
  C    -6.787842  0.386626  0.816960
  C    -6.771784  4.143563  0.676226
  N    -4.532169  0.866309  0.740577
  N    -4.570958  4.918066  0.337151
  N    -6.680381  0.282619 -0.500357
  N    -6.800981  4.085770 -0.626906
  N    -7.429116  0.534310  3.319282
  N    -7.299424  4.336714  3.249721
  S    -8.212923  0.301385  1.879131
  S    -8.124928  4.029022  1.859663
  S    -5.065460  0.578469 -0.820531
  S    -5.333411  4.617658 -1.159871
  S    -5.851750  1.120060  3.296184
  S    -5.771165  4.972603  3.006347
