16  
    
  C     2.237477  4.355437  3.082032
  C     1.959423  8.287122  3.103508
  C     1.037607  4.134024  2.286406
  C     0.790440  7.640752  2.578751
  N     3.364260  4.328271  2.371777
  N     3.012369  8.292277  2.314707
  N     1.336030  3.729020  1.052932
  N     1.020226  7.211728  1.337812
  N     0.209121  4.473481  4.699320
  N     0.082973  8.545268  4.873590
  S    -0.365147  3.808329  3.200819
  S    -0.502365  7.540014  3.691173
  S     2.932808  4.003294  0.815777
  S     2.559041  7.484211  0.946204
  S     1.900624  4.695566  4.762669
  S     1.677589  9.045049  4.664741
