16  
    
  C     2.207608  4.408498  2.974435
  C     2.118536  8.601142  3.083847
  C     0.993279  4.043981  2.319408
  C     0.994952  7.859976  2.553775
  N     3.194409  4.624211  2.112311
  N     3.117560  8.686609  2.226982
  N     1.058823  3.904938  0.989366
  N     1.257973  7.289577  1.374841
  N     0.305939  4.319310  4.848151
  N     0.350668  8.473924  4.973377
  S    -0.379467  3.837156  3.403397
  S    -0.378597  7.871091  3.563492
  S     2.614254  4.206366  0.648861
  S     2.663187  7.884085  0.803573
  S     1.992648  4.617074  4.634376
  S     1.913708  9.044652  4.745170
