16  
    
  C    -4.683470  1.071437  1.455351
  C    -4.794922  4.697750  1.698896
  C    -5.927168  0.965072  0.718384
  C    -6.039194  4.504481  1.018440
  N    -3.595976  1.149342  0.655412
  N    -3.737637  4.806632  0.870420
  N    -5.741453  0.751688 -0.589527
  N    -5.950583  4.376393 -0.308086
  N    -6.431775  0.743052  3.308375
  N    -6.605502  4.140255  3.554773
  S    -7.212001  0.676094  1.867069
  S    -7.402838  4.185253  2.098940
  S    -4.166981  0.916245 -0.871345
  S    -4.339735  4.544049 -0.670896
  S    -4.816433  0.922222  3.245632
  S    -5.037503  4.632462  3.404822
