16  
    
  C    -4.304676  1.766688  1.902517
  C    -4.352594  5.204064  1.745212
  C    -5.419060  1.106924  1.301619
  C    -5.555115  4.728231  1.214493
  N    -3.198940  1.701702  1.190338
  N    -3.383535  5.239516  0.853620
  N    -5.273128  0.700075  0.051482
  N    -5.570964  4.557234 -0.093501
  N    -6.057334  1.467945  3.734125
  N    -6.035484  5.107481  3.661374
  S    -6.827985  0.986753  2.264865
  S    -6.927018  4.651938  2.253402
  S    -3.614338  0.968935 -0.259815
  S    -4.033152  4.813774 -0.597134
  S    -4.504166  2.157727  3.553934
  S    -4.408148  5.649351  3.435926
