16  
    
  C     3.021905  4.951348  3.236612
  C     3.031905  9.269508  3.784276
  C     1.782602  4.534967  2.642967
  C     1.852070  8.679312  3.098078
  N     3.928312  5.325792  2.329545
  N     4.026562  9.427478  2.937295
  N     1.842451  4.340677  1.316224
  N     1.994419  8.346570  1.866196
  N     1.152505  5.014480  5.083501
  N     1.114688  8.666853  5.460689
  S     0.463051  4.283887  3.771073
  S     0.483134  8.213443  4.017870
  S     3.355462  4.791738  0.843585
  S     3.445813  8.975835  1.364377
  S     2.771981  5.440357  4.887173
  S     2.581457  9.438699  5.491746
