16  
    
  C    -5.295235  0.975606  1.375440
  C    -5.474168  4.696085  1.602003
  C    -6.489767  0.489142  0.750564
  C    -6.765940  4.321378  1.031280
  N    -4.351807  1.336268  0.525253
  N    -4.481190  4.812687  0.737596
  N    -6.401661  0.375200 -0.567622
  N    -6.730303  4.183617 -0.286811
  N    -7.104620  0.906318  3.193243
  N    -6.994736  4.248689  3.554275
  S    -7.802965  0.328448  1.835253
  S    -8.022355  4.270340  2.202498
  S    -4.898821  0.964812 -0.981814
  S    -5.155501  4.498334 -0.734881
  S    -5.521686  1.331198  3.083356
  S    -5.472578  4.891286  3.301820
