16  
    
  C     0.420905  3.700216  2.975941
  C     0.451567  7.574689  2.888942
  C    -0.834414  3.588465  2.381627
  C    -0.829688  7.254627  2.325318
  N     1.444613  3.825125  2.119204
  N     1.450075  7.544916  2.024083
  N    -0.879664  3.689371  1.068491
  N    -0.848748  7.141586  1.018654
  N    -1.180106  3.059516  4.878984
  N    -1.260795  7.582573  4.805522
  S    -2.112855  3.226783  3.546621
  S    -2.103522  7.150692  3.471492
  S     0.786411  3.949212  0.607667
  S     0.822970  7.306515  0.535789
  S     0.487846  3.327895  4.655637
  S     0.377111  7.837897  4.650128
