16  
    
  C     2.912303  5.097087  3.181472
  C     2.941359  9.190142  3.689687
  C     1.710653  4.426432  2.648240
  C     1.900951  8.451316  3.033163
  N     3.890639  5.304740  2.340248
  N     3.957440  9.570938  2.850473
  N     1.805527  4.248679  1.349377
  N     2.023252  8.333746  1.726648
  N     1.242782  5.020498  5.096023
  N     1.098346  8.643912  5.468663
  S     0.452839  4.183790  3.794009
  S     0.480791  8.167700  3.948359
  S     3.325635  4.845391  0.887025
  S     3.446336  9.007725  1.329980
  S     2.840754  5.469513  4.852901
  S     2.609236  9.393777  5.459349
