16  
    
  C     3.056962  5.078207  3.365520
  C     3.102214  9.030988  3.778148
  C     1.870258  4.675486  2.681445
  C     1.765538  8.699154  3.293656
  N     4.154007  5.020997  2.617806
  N     4.023548  8.920001  2.832427
  N     1.986626  4.617730  1.345670
  N     1.660145  8.277953  1.990697
  N     1.278585  5.001620  5.203959
  N     1.510372  9.331348  5.777432
  S     0.465902  4.619753  3.828133
  S     0.545417  8.764155  4.578881
  S     3.682424  4.863276  1.047987
  S     3.292896  8.290214  1.465627
  S     2.903964  5.252830  5.109875
  S     3.140101  9.335095  5.480262
