16  
    
  C    -0.712513  3.004459  2.403534
  C    -0.927195  6.355889  2.510933
  C    -1.957397  2.609889  1.860193
  C    -2.082998  5.849630  1.788989
  N     0.255033  3.302559  1.541408
  N     0.151482  6.497187  1.744472
  N    -1.921310  2.447561  0.561417
  N    -1.923083  5.846724  0.485953
  N    -2.418844  2.731453  4.357331
  N    -2.883893  6.383562  4.225845
  S    -3.256057  2.539976  2.973271
  S    -3.482508  5.700860  2.831844
  S    -0.374498  2.780774  0.068098
  S    -0.320998  6.220472  0.191247
  S    -0.852947  3.234450  4.201053
  S    -1.210847  6.635577  4.197508
