16  
    
  C    -0.376409  3.335938  2.688328
  C    -0.225548  6.990483  2.572577
  C    -1.385721  2.550699  2.056819
  C    -1.411083  6.474965  1.815188
  N     0.669106  3.646096  1.953954
  N     0.818675  7.218937  1.799645
  N    -1.078642  2.101907  0.851260
  N    -1.213861  6.236660  0.522095
  N    -2.195511  3.070279  4.440585
  N    -2.215554  6.934716  4.233508
  S    -2.836060  2.298333  3.132275
  S    -2.870707  6.459105  2.746001
  S     0.384530  2.809560  0.510851
  S     0.355381  6.627295  0.256703
  S    -0.729494  3.723453  4.303867
  S    -0.604322  7.453122  4.205831
