16  
    
  C    -2.722528  2.648330  2.347906
  C    -2.742120  6.128194  1.960200
  C    -3.870284  2.034015  1.730493
  C    -3.830872  5.589338  1.180506
  N    -1.750093  2.998026  1.509365
  N    -1.706820  6.485573  1.240450
  N    -3.703529  1.754733  0.424701
  N    -3.654498  5.565445 -0.141406
  N    -4.390002  2.133363  4.214952
  N    -4.422773  5.472793  3.701721
  S    -5.062654  1.384029  2.921023
  S    -5.212440  5.249800  2.245474
  S    -2.257149  2.425218 -0.034877
  S    -2.085656  6.164891 -0.311557
  S    -2.890204  2.800470  4.034156
  S    -2.996396  6.262434  3.678676
