16  
    
  C    -1.968532  2.536541  2.632427
  C    -1.711586  5.824889  2.328603
  C    -3.060295  1.971049  1.938745
  C    -2.937166  5.674373  1.655568
  N    -0.869978  2.706803  1.872575
  N    -0.673944  6.122379  1.470636
  N    -2.884422  1.790597  0.628659
  N    -2.904195  5.648771  0.302099
  N    -3.725219  2.097836  4.405774
  N    -3.539591  5.672582  4.192957
  S    -4.463344  1.805043  2.932552
  S    -4.277414  5.428142  2.729151
  S    -1.361745  2.346357  0.302211
  S    -1.319090  5.918937 -0.024364
  S    -2.108879  2.401095  4.386199
  S    -1.859942  5.794099  4.064931
