16  
    
  C     0.141252  3.410524  2.457806
  C     0.039465  7.204563  2.801911
  C    -1.029626  2.833335  1.712573
  C    -1.181098  6.837152  2.101823
  N     1.147601  3.576759  1.615613
  N     1.051702  7.420940  1.990760
  N    -0.997458  2.984739  0.389489
  N    -1.009232  6.721655  0.777511
  N    -1.662773  2.868032  4.258751
  N    -1.794988  6.928237  4.650204
  S    -2.330833  2.504008  2.767803
  S    -2.475898  6.471657  3.233538
  S     0.604791  3.355516  0.029630
  S     0.615669  7.060358  0.394650
  S    -0.048642  3.486805  4.180658
  S    -0.207416  7.388584  4.491616
