16  
    
  C     1.932885  4.573201  3.279216
  C     1.630866  7.659724  3.068585
  C     0.756297  4.014634  2.626202
  C     0.414329  7.372629  2.351887
  N     2.947268  4.875993  2.486443
  N     2.700235  7.936373  2.291306
  N     0.930740  3.910927  1.318789
  N     0.514463  7.418664  1.014393
  N     0.331948  4.008871  5.235191
  N    -0.206293  7.539051  4.835052
  S    -0.443232  3.712546  3.814748
  S    -0.961868  7.390778  3.363772
  S     2.374798  4.605124  0.983181
  S     2.127492  7.746818  0.735983
  S     1.903733  4.483839  5.070144
  S     1.444424  7.693049  4.805771
