16  
    
  C    -3.166236  1.973953  1.719003
  C    -3.099921  5.896903  1.978948
  C    -4.273883  1.404430  0.991958
  C    -4.396800  5.561519  1.473940
  N    -2.104459  2.389568  1.024290
  N    -2.117621  6.016217  1.125004
  N    -3.980239  1.235917 -0.290444
  N    -4.383974  5.369272  0.146244
  N    -5.037641  1.562713  3.425306
  N    -4.676640  5.366567  4.019994
  S    -5.650972  1.019013  1.962302
  S    -5.632181  5.243254  2.713233
  S    -2.494423  1.874289 -0.535628
  S    -2.850921  5.791099 -0.347253
  S    -3.440835  2.233794  3.439034
  S    -3.093834  5.924155  3.686647
