16  
    
  C     0.863140  3.915493  2.561122
  C     1.550647  7.961783  3.279721
  C    -0.334254  3.480363  1.831796
  C     0.230767  7.832118  2.658830
  N     1.888480  4.110823  1.763263
  N     2.555853  7.866956  2.396507
  N    -0.150631  3.418396  0.498207
  N     0.271124  7.796905  1.331538
  N    -0.894579  3.641584  4.370225
  N    -0.227953  7.836323  5.217242
  S    -1.626356  3.166972  2.894780
  S    -1.074436  7.794702  3.755695
  S     1.476194  3.714721  0.254034
  S     1.911768  7.871736  0.880918
  S     0.740984  4.051725  4.309842
  S     1.429558  8.024381  5.064855
