16  
    
  C    -1.163059  3.303802  2.177475
  C    -1.103233  7.072522  2.628145
  C    -2.460597  2.815943  1.602498
  C    -2.368397  6.788342  2.015064
  N    -0.384370  3.742833  1.210392
  N    -0.089600  7.096792  1.755627
  N    -2.438739  2.538314  0.291801
  N    -2.310715  6.819617  0.683390
  N    -2.687400  2.923145  4.185021
  N    -2.818278  6.673810  4.522016
  S    -3.631402  2.505865  2.890170
  S    -3.691335  6.585844  3.059963
  S    -0.933328  3.086401 -0.234894
  S    -0.694170  6.877432  0.224713
  S    -1.112755  3.360291  3.891754
  S    -1.182783  7.090290  4.348265
