16  
    
  C     3.103413  5.085612  3.390387
  C     3.189818  8.966762  3.737995
  C     1.842410  4.910901  2.730527
  C     1.857220  8.663850  3.321686
  N     4.176793  5.088468  2.599025
  N     4.057114  8.778045  2.762662
  N     2.003418  4.592141  1.457025
  N     1.726209  8.331684  2.020170
  N     1.286855  5.016128  5.263361
  N     1.536609  9.413258  5.805958
  S     0.517091  4.541074  3.858593
  S     0.632100  8.794823  4.477216
  S     3.574783  4.763713  1.044631
  S     3.206885  8.195135  1.424168
  S     2.958730  5.222319  5.129845
  S     3.202168  9.419022  5.524546
