16  
    
  C     1.653706  4.430831  3.457824
  C     1.423276  7.955443  3.068360
  C     0.321907  4.290306  2.885643
  C     0.205688  7.464902  2.367097
  N     2.605578  4.345983  2.506618
  N     2.427039  8.345420  2.276794
  N     0.308914  3.930596  1.607793
  N     0.317951  7.405261  1.040685
  N    -0.029963  4.659637  5.362830
  N    -0.387797  7.697612  4.888005
  S    -1.003817  4.214216  4.076991
  S    -1.148598  7.204363  3.501858
  S     1.885664  4.054448  1.077097
  S     1.878790  7.955224  0.773712
  S     1.582423  4.873992  5.113313
  S     1.196850  8.221333  4.754633
