16  
    
  C    -1.235836  3.297167  2.134129
  C    -1.032644  6.917814  2.568642
  C    -2.365235  2.659979  1.526829
  C    -2.295057  6.711804  1.922535
  N    -0.353404  3.640901  1.211417
  N     0.012949  7.217836  1.778655
  N    -2.428025  2.685138  0.174232
  N    -2.201007  6.613016  0.583741
  N    -2.849362  2.896879  4.098181
  N    -2.792822  6.694881  4.553075
  S    -3.583325  2.234326  2.730364
  S    -3.683059  6.713619  3.130625
  S    -0.946981  3.264010 -0.303820
  S    -0.633499  7.016430  0.231168
  S    -1.365325  3.656401  3.818309
  S    -1.138894  6.952723  4.347699
