16  
    
  C    -0.397765  3.122820  2.702951
  C    -0.356108  7.015246  2.436861
  C    -1.575346  2.762699  2.029141
  C    -1.450746  6.273978  1.975559
  N     0.619866  3.389079  1.873600
  N     0.669247  7.102597  1.570426
  N    -1.378621  2.438909  0.747292
  N    -1.333584  5.878301  0.700271
  N    -2.070323  2.919723  4.554483
  N    -2.014218  6.881211  4.408626
  S    -2.865104  2.417883  3.186467
  S    -2.691642  5.990355  3.177310
  S     0.187050  2.952720  0.375728
  S     0.131910  6.464282  0.178159
  S    -0.574956  3.587638  4.377909
  S    -0.500481  7.517713  4.082755
