16  
    
  C     2.071992  5.038316  3.141198
  C     2.044855  8.866188  3.394272
  C     0.887551  4.418803  2.465316
  C     0.808083  8.431062  2.744098
  N     3.146153  5.305338  2.355732
  N     3.106236  8.948027  2.565165
  N     0.995771  4.483448  1.134941
  N     0.911520  8.213034  1.452415
  N     0.389991  4.404492  4.916916
  N     0.208510  8.602223  5.180590
  S    -0.495368  4.128343  3.557371
  S    -0.517560  8.140102  3.752451
  S     2.596109  4.898265  0.821687
  S     2.468159  8.644792  0.989853
  S     1.991652  4.740199  4.898382
  S     1.829451  8.918475  5.179294
