16  
    
  C     1.847470  4.126416  3.166145
  C     1.952610  7.999911  3.065127
  C     0.574450  4.031593  2.572437
  C     0.734595  7.508727  2.440381
  N     2.853108  4.323669  2.322106
  N     2.930465  8.342552  2.235672
  N     0.587446  3.856443  1.260038
  N     0.743950  7.437141  1.115736
  N     0.192391  4.301239  5.015833
  N     0.214088  7.491786  4.947182
  S    -0.697178  4.036424  3.723313
  S    -0.575056  7.130776  3.524472
  S     2.255822  4.032053  0.790998
  S     2.316074  7.971602  0.730932
  S     1.816599  4.327210  4.846227
  S     1.794618  7.869200  4.857695
