16  
    
  C    -0.365763  3.441398  2.610148
  C    -0.336194  6.916304  2.394398
  C    -1.680418  3.041555  2.052777
  C    -1.619388  6.463768  1.847674
  N     0.647262  3.392004  1.740858
  N     0.562449  7.208284  1.495638
  N    -1.626715  3.049510  0.708409
  N    -1.678501  6.378710  0.530443
  N    -2.012071  3.217265  4.566303
  N    -2.014739  6.696083  4.308228
  S    -2.924766  2.915226  3.203461
  S    -2.829372  6.223029  2.935274
  S    -0.054249  3.222056  0.232303
  S    -0.133684  6.726600  0.040369
  S    -0.403989  3.606376  4.342810
  S    -0.412429  7.130927  4.122555
