16  
    
  C    -3.164822  1.880773  1.865537
  C    -3.106698  5.773290  2.053901
  C    -4.251892  1.430589  1.065297
  C    -4.354103  5.338294  1.519134
  N    -2.106680  2.156619  1.101384
  N    -2.134934  6.071742  1.176475
  N    -4.024809  1.126887 -0.203185
  N    -4.305891  5.256215  0.191099
  N    -5.132900  1.656414  3.487041
  N    -4.835093  5.385627  4.066360
  S    -5.718691  1.147963  1.982713
  S    -5.659562  5.071374  2.664727
  S    -2.478437  1.725087 -0.475161
  S    -2.865726  5.767364 -0.366811
  S    -3.514188  2.145631  3.534721
  S    -3.223627  5.803921  3.833893
