16  
    
  C    -4.833386  1.149741  1.660189
  C    -4.761630  4.838585  1.859129
  C    -5.895203  0.387331  1.050193
  C    -5.834435  4.142437  1.237541
  N    -3.795531  1.378982  0.795078
  N    -3.762910  5.044382  1.005040
  N    -5.738270  0.307369 -0.279116
  N    -5.680658  3.833926 -0.044342
  N    -6.758657  0.885287  3.461620
  N    -6.547152  4.467754  3.636519
  S    -7.336811  0.118713  2.099160
  S    -7.197065  3.894119  2.239484
  S    -4.291411  0.869304 -0.687184
  S    -4.185120  4.414776 -0.471422
  S    -5.141940  1.426289  3.333214
  S    -5.009065  5.135159  3.594703
