16  
    
  C     2.129923  4.522224  3.039732
  C     2.077616  8.134848  3.195654
  C     0.983781  3.887919  2.405826
  C     0.907499  7.601633  2.490216
  N     3.162664  4.653691  2.186260
  N     3.167024  8.146918  2.421335
  N     1.085561  3.629820  1.079807
  N     1.060562  7.158000  1.256716
  N     0.211366  4.476032  4.854910
  N     0.036931  8.243682  4.836344
  S    -0.474573  3.962233  3.447540
  S    -0.559625  7.481473  3.408265
  S     2.687583  4.005580  0.737639
  S     2.661880  7.579031  0.896121
  S     1.908112  4.768772  4.661507
  S     1.706743  8.394420  4.880799
