16  
    
  C     0.762596  3.857471  3.146624
  C     1.147665  7.542571  2.940622
  C    -0.455855  3.332976  2.495998
  C    -0.054737  6.994550  2.231044
  N     1.818279  3.875474  2.292789
  N     2.253029  7.710240  2.202763
  N    -0.441697  3.282305  1.153197
  N     0.229383  6.689706  0.945313
  N    -0.837270  3.338016  5.076938
  N    -0.769087  7.659772  4.618081
  S    -1.728994  3.203918  3.610607
  S    -1.416707  6.947107  3.275923
  S     1.169272  3.639147  0.724309
  S     1.795836  7.146505  0.690215
  S     0.730142  3.754215  4.909452
  S     0.875161  7.963552  4.592145
