16  
    
  C    -2.305825  2.450484  1.954821
  C    -2.352641  6.144928  2.209475
  C    -3.552692  2.079639  1.419932
  C    -3.487781  5.571727  1.517980
  N    -1.327933  2.532734  1.030721
  N    -1.291631  6.276869  1.394489
  N    -3.579352  1.808245  0.117445
  N    -3.277969  5.170557  0.273439
  N    -3.957642  2.396439  3.893653
  N    -4.119318  5.879162  3.974701
  S    -4.892759  2.016639  2.597204
  S    -4.879573  5.438378  2.545202
  S    -2.037460  2.132416 -0.379548
  S    -1.718294  5.660633 -0.120933
  S    -2.402138  2.831850  3.614415
  S    -2.499575  6.177129  3.900509
