16  
    
  C    -1.601477  2.876683  2.036002
  C    -1.170973  6.788713  2.209807
  C    -2.548673  2.015336  1.382732
  C    -2.465829  6.488900  1.698124
  N    -0.514340  3.138145  1.274400
  N    -0.185859  6.812822  1.301038
  N    -2.392620  1.848987  0.043292
  N    -2.404387  6.224553  0.408129
  N    -3.343203  2.384219  3.865056
  N    -2.818868  6.934253  4.159276
  S    -3.876439  1.638456  2.453307
  S    -3.686756  6.327423  2.875586
  S    -0.834749  2.485266 -0.215550
  S    -0.885431  6.513615 -0.173571
  S    -1.872956  3.188687  3.716633
  S    -1.220222  7.119025  3.877516
