16  
    
  C    -2.162975  2.427634  1.940386
  C    -2.186815  5.798640  2.243001
  C    -3.480230  2.067244  1.372306
  C    -3.385770  5.453474  1.578486
  N    -1.210636  2.610763  1.008701
  N    -1.121356  5.834886  1.414444
  N    -3.391052  1.743515  0.084818
  N    -3.334256  5.379458  0.261609
  N    -3.857968  2.359388  3.893541
  N    -3.975991  5.917696  4.031245
  S    -4.701007  1.970754  2.547156
  S    -4.691771  5.428345  2.636143
  S    -1.823989  2.048599 -0.389313
  S    -1.754904  5.760078 -0.160545
  S    -2.241859  2.621660  3.712823
  S    -2.360132  6.141838  3.914978
