16  
    
  C     1.063162  4.221776  2.820596
  C     1.585376  8.683622  2.970439
  C    -0.137685  3.801835  2.037044
  C     0.394464  8.155903  2.371778
  N     2.139783  4.633498  2.101092
  N     2.564017  8.925573  2.108512
  N     0.138939  3.603537  0.751078
  N     0.564509  7.869474  1.086289
  N    -0.860092  3.859700  4.455976
  N    -0.106589  8.464036  4.882041
  S    -1.459656  3.317251  2.991905
  S    -0.900351  8.060004  3.508214
  S     1.698827  4.194541  0.505713
  S     2.122352  8.404524  0.612967
  S     0.661071  4.352448  4.477981
  S     1.456501  8.864140  4.680888
