16  
    
  C     0.461575  3.727991  2.989819
  C     0.947147  7.539239  2.654487
  C    -0.441567  3.015974  2.175254
  C    -0.137499  7.004925  1.983138
  N     1.470505  4.222258  2.268958
  N     1.897213  7.951103  1.825588
  N    -0.169777  3.033509  0.845247
  N    -0.116607  7.051860  0.668144
  N    -1.457314  3.165768  4.553922
  N    -0.686809  6.911084  4.496576
  S    -1.876443  2.529558  3.046716
  S    -1.437274  6.500493  3.049854
  S     1.307597  3.709370  0.749183
  S     1.347835  7.788498  0.295070
  S     0.046046  3.783198  4.680967
  S     0.862606  7.507907  4.388911
