16  
    
  C     3.120777  4.862361  3.413254
  C     2.938819  9.027878  3.764662
  C     1.904850  4.698983  2.693071
  C     1.638584  8.618904  3.316755
  N     4.160916  5.154812  2.641018
  N     3.992193  8.962924  2.961349
  N     2.057817  4.604299  1.376962
  N     1.798936  8.172573  2.028349
  N     1.207753  5.014444  5.141432
  N     1.495475  9.142472  5.846221
  S     0.492517  4.671862  3.670054
  S     0.458524  8.764044  4.580841
  S     3.622633  4.871046  1.086018
  S     3.339332  8.509310  1.527077
  S     2.852786  5.273610  5.047595
  S     3.111922  9.302368  5.415759
