16  
    
  C     1.999768  4.513396  3.278141
  C     1.601262  7.663546  3.055249
  C     0.783930  4.111527  2.641143
  C     0.394692  7.394676  2.358275
  N     2.964220  4.952320  2.466743
  N     2.659449  7.941138  2.314763
  N     0.936089  3.902098  1.317154
  N     0.574564  7.444092  1.044876
  N     0.330925  4.008993  5.178107
  N    -0.201548  7.548342  4.818611
  S    -0.452858  3.694559  3.832683
  S    -0.981363  7.382129  3.378952
  S     2.371390  4.570313  0.961482
  S     2.149975  7.727510  0.725755
  S     1.901826  4.534048  5.065186
  S     1.420446  7.717367  4.781284
