16  
    
  C    -5.420997  1.051829  1.594782
  C    -5.210323  4.734847  1.475716
  C    -6.675540  0.882178  0.998041
  C    -6.481754  4.426046  0.888412
  N    -4.376416  1.077291  0.758924
  N    -4.226591  4.661853  0.599701
  N    -6.553278  0.687371 -0.303492
  N    -6.401112  4.025400 -0.370946
  N    -7.185305  1.083951  3.512432
  N    -6.797794  4.675329  3.427636
  S    -8.069334  0.894029  2.035913
  S    -7.722615  4.390744  2.036880
  S    -5.029793  0.881913 -0.724032
  S    -4.790676  4.146738 -0.840900
  S    -5.516832  1.299818  3.297314
  S    -5.223288  5.102145  3.132195
