16  
    
  C    -4.322880  1.583274  1.949821
  C    -4.616067  5.103392  1.667723
  C    -5.502591  1.000702  1.376134
  C    -5.791995  4.598282  1.092626
  N    -3.280504  1.788575  1.111427
  N    -3.614285  5.371547  0.808797
  N    -5.383308  0.781218  0.088987
  N    -5.739800  4.307550 -0.228258
  N    -6.096184  1.275165  3.888328
  N    -6.336510  4.654966  3.707963
  S    -6.828180  0.763978  2.533779
  S    -7.104079  4.354177  2.221444
  S    -3.844632  1.241047 -0.350876
  S    -4.233994  4.822785 -0.679894
  S    -4.579096  1.843829  3.676005
  S    -4.843673  5.373898  3.476023
