16  
    
  C     3.044729  5.140377  3.395594
  C     3.407497  9.004645  3.590235
  C     2.025164  4.358373  2.756459
  C     2.106518  8.669482  3.018448
  N     4.061572  5.478030  2.625338
  N     4.395222  9.005145  2.670422
  N     2.153517  4.349114  1.395980
  N     2.061283  8.434017  1.689159
  N     1.158034  5.073870  5.082884
  N     1.601907  8.840060  5.419691
  S     0.597335  4.140060  3.819221
  S     0.718866  8.592507  4.072959
  S     3.718603  4.996620  1.047980
  S     3.609633  8.782706  1.139831
  S     2.779031  5.382927  5.136065
  S     3.159066  9.295213  5.311235
