16  
    
  C     1.941215  4.250553  3.079557
  C     1.989610  7.988991  3.111125
  C     0.640366  4.101164  2.462644
  C     0.785890  7.618953  2.421267
  N     2.953129  4.197567  2.225469
  N     3.061353  8.180159  2.325517
  N     0.680111  3.832158  1.178050
  N     0.878089  7.482823  1.108287
  N     0.214402  4.255739  5.078329
  N     0.180915  7.544254  4.940284
  S    -0.685000  3.979453  3.647079
  S    -0.541578  7.241704  3.464582
  S     2.291518  3.965737  0.737198
  S     2.489472  7.867927  0.757017
  S     1.871479  4.596363  4.810217
  S     1.767923  8.035503  4.873754
