16  
    
  C     1.055411  4.117992  2.616922
  C     1.091080  7.905302  3.113859
  C    -0.060111  3.480846  2.061956
  C    -0.090296  7.459616  2.509399
  N     2.039637  4.330069  1.775674
  N     2.185770  7.953030  2.320876
  N     0.086512  3.002530  0.829264
  N    -0.043871  7.242625  1.173266
  N    -0.873644  4.225848  4.360871
  N    -0.622793  7.725733  5.114331
  S    -1.405816  3.316735  3.133356
  S    -1.437097  7.429145  3.718996
  S     1.652093  3.469517  0.393832
  S     1.538282  7.528418  0.806258
  S     0.768442  4.725025  4.241359
  S     0.994083  8.075932  4.848505
