16  
    
  C     0.026134  3.659176  2.702414
  C     0.348639  7.378472  2.675553
  C    -1.017530  2.901091  1.999172
  C    -0.935347  7.219059  1.994795
  N     1.110063  3.775231  1.967000
  N     1.375471  7.600662  1.850576
  N    -0.801262  2.758167  0.691660
  N    -0.884147  7.319517  0.648400
  N    -1.667294  3.176334  4.520125
  N    -1.459252  7.283173  4.533966
  S    -2.324616  2.561217  3.106355
  S    -2.321661  7.199567  3.097972
  S     0.720442  3.390818  0.408687
  S     0.669825  7.478717  0.324791
  S    -0.186564  3.885902  4.413002
  S     0.193665  7.507196  4.412810
