16  
    
  C     3.201728  5.129759  3.490113
  C     3.435385  8.911042  3.673498
  C     1.928224  4.726836  2.923436
  C     2.061091  8.827780  3.137612
  N     4.221267  4.981960  2.626655
  N     4.385071  8.732334  2.817472
  N     1.983245  4.494543  1.611298
  N     2.049241  8.493469  1.862007
  N     1.412168  5.073251  5.379318
  N     1.812971  9.141022  5.625593
  S     0.555932  4.705776  3.979275
  S     0.850914  9.119700  4.314309
  S     3.547750  4.673610  1.159326
  S     3.654298  8.263562  1.392191
  S     3.038558  5.361254  5.287959
  S     3.425586  9.212818  5.437440
