16  
    
  C    -0.331394  3.477760  2.822982
  C    -0.620193  6.900527  2.538379
  C    -1.563174  2.990047  2.164102
  C    -1.752461  6.347515  1.845587
  N     0.685909  3.634182  1.973062
  N     0.443752  7.145937  1.779020
  N    -1.497353  2.978018  0.812980
  N    -1.597077  6.199884  0.515364
  N    -2.113127  3.195617  4.690780
  N    -2.447751  6.700998  4.388501
  S    -2.938926  2.902189  3.280631
  S    -3.110249  6.096111  3.018223
  S     0.088604  3.225671  0.441943
  S    -0.029959  6.700336  0.217981
  S    -0.526225  3.763213  4.483395
  S    -0.825171  7.087314  4.303520
