16  
    
  C    -5.427144  1.175329  1.285331
  C    -5.392017  4.781493  1.562184
  C    -6.574034  0.566726  0.558370
  C    -6.584743  4.374439  0.883780
  N    -4.399332  1.481256  0.521191
  N    -4.359946  5.087902  0.788138
  N    -6.486444  0.509614 -0.767319
  N    -6.518875  4.320563 -0.432405
  N    -7.141296  0.571486  3.153351
  N    -7.287804  4.636722  3.342299
  S    -7.825025  0.091600  1.672544
  S    -7.974031  4.102747  1.916837
  S    -4.895343  1.038279 -1.065601
  S    -4.991913  4.803084 -0.738099
  S    -5.604716  1.189643  3.032778
  S    -5.658368  4.981196  3.274337
