16  
    
  C     2.372299  4.764577  3.322573
  C     2.362390  8.627140  3.527763
  C     1.104594  4.473142  2.673882
  C     1.134302  8.352635  2.873687
  N     3.365604  5.116647  2.468578
  N     3.402066  8.786242  2.702506
  N     1.272618  4.262723  1.362840
  N     1.218790  8.363368  1.546191
  N     0.538688  4.225198  5.237503
  N     0.649034  8.774212  5.392195
  S    -0.160804  3.840816  3.724830
  S    -0.145686  8.103998  4.030307
  S     2.789076  4.731307  0.895918
  S     2.838401  8.650987  1.120933
  S     2.200331  4.713092  5.079815
  S     2.306256  9.034920  5.174715
