16  
    
  C     2.935583  4.949446  3.666075
  C     2.899313  8.733843  3.408931
  C     1.617242  4.881053  3.050690
  C     1.669054  8.384185  2.705071
  N     3.935287  4.841787  2.788391
  N     3.988497  8.751622  2.654226
  N     1.631369  4.861504  1.721118
  N     1.868569  8.062627  1.440121
  N     1.264719  5.475760  5.469062
  N     1.079232  8.726010  5.311166
  S     0.310292  5.224243  4.145249
  S     0.223608  8.484707  3.867045
  S     3.240279  4.874450  1.330309
  S     3.514826  8.247058  1.203831
  S     2.910331  5.307600  5.330874
  S     2.789382  9.046069  5.109501
