16  
    
  C     2.116579  4.945025  3.162270
  C     2.033945  8.916209  3.371969
  C     0.899153  4.459344  2.475794
  C     0.826342  8.473890  2.712802
  N     3.096521  5.288389  2.342080
  N     3.077379  9.028187  2.585109
  N     0.964996  4.455567  1.147435
  N     0.946401  8.175172  1.419228
  N     0.396766  4.385611  4.927578
  N     0.234524  8.595978  5.249172
  S    -0.443010  4.105725  3.561005
  S    -0.534456  8.185905  3.776202
  S     2.569437  4.895002  0.813042
  S     2.502011  8.629411  1.042957
  S     2.052476  4.709152  4.924080
  S     1.844044  8.928169  5.162509
