16  
    
  C     2.350426  4.883056  3.373261
  C     2.447089  8.668355  3.488399
  C     1.251852  4.204362  2.669637
  C     1.191912  8.331851  2.864340
  N     3.362448  5.160416  2.539835
  N     3.512553  8.713855  2.647276
  N     1.310083  4.240230  1.326009
  N     1.254420  8.250530  1.522502
  N     0.600158  4.234681  5.167478
  N     0.788197  8.724543  5.366277
  S    -0.140383  3.913744  3.725127
  S    -0.082317  8.082335  4.134944
  S     2.894766  4.697090  1.021619
  S     2.851628  8.642241  1.169910
  S     2.193243  4.726533  5.129255
  S     2.416746  8.974650  5.178831
