16  
    
  C    -4.284593  1.607959  2.003559
  C    -4.641370  5.214898  1.676752
  C    -5.366487  0.925866  1.378082
  C    -5.817811  4.734153  1.098588
  N    -3.190339  1.751088  1.240349
  N    -3.618888  5.396205  0.836151
  N    -5.149427  0.679496  0.061977
  N    -5.766530  4.490991 -0.212686
  N    -6.229496  1.573534  3.742326
  N    -6.300797  5.166091  3.707106
  S    -6.860059  0.968106  2.356971
  S    -7.115653  4.622776  2.316664
  S    -3.655200  1.163566 -0.298091
  S    -4.129047  4.832163 -0.642423
  S    -4.610023  1.955147  3.650727
  S    -4.624804  5.482140  3.407639
