16  
    
  C    -3.106377  2.133738  1.725703
  C    -3.054845  5.878726  1.994363
  C    -4.259956  1.652029  0.984740
  C    -4.325251  5.435339  1.437206
  N    -2.052299  2.487224  0.948995
  N    -2.127757  6.132425  1.043750
  N    -4.018480  1.441764 -0.309968
  N    -4.371572  5.399310  0.101596
  N    -4.999493  1.601440  3.470206
  N    -4.615782  5.442341  3.981565
  S    -5.466941  0.962728  2.056666
  S    -5.506001  5.318923  2.655957
  S    -2.484262  1.969285 -0.618288
  S    -2.850396  5.708117 -0.423771
  S    -3.465421  2.213614  3.434976
  S    -3.018373  6.026195  3.793395
