16  
    
  C     1.627181  4.491618  3.397541
  C     1.346064  8.063175  3.033014
  C     0.327320  4.250024  2.829669
  C     0.264729  7.390136  2.401035
  N     2.638689  4.433110  2.594269
  N     2.337529  8.433130  2.229643
  N     0.366548  3.855140  1.582573
  N     0.396935  7.265506  1.072709
  N    -0.010799  4.610301  5.325380
  N    -0.350117  7.634961  4.889603
  S    -0.860921  4.264761  3.998696
  S    -1.061040  7.131563  3.486866
  S     2.009314  4.014813  1.077219
  S     1.916504  7.965680  0.714212
  S     1.622590  4.868780  5.105465
  S     1.173901  8.204720  4.770800
