16  
    
  C     0.630095  3.807779  2.962705
  C     0.665574  7.524365  2.842945
  C    -0.599198  3.260158  2.450437
  C    -0.500749  6.995712  2.163251
  N     1.562095  4.104722  2.043522
  N     1.730863  7.571654  2.034033
  N    -0.475603  2.894208  1.210053
  N    -0.286092  6.828518  0.861109
  N    -1.178061  4.004821  4.853124
  N    -1.149550  7.156232  4.601614
  S    -1.980649  3.299484  3.560775
  S    -1.869012  6.821096  3.157572
  S     1.065023  3.306162  0.712764
  S     1.305070  7.226806  0.460599
  S     0.461013  4.291296  4.623594
  S     0.378460  7.813612  4.522408
