16  
    
  C     0.423992  3.530489  2.977539
  C     0.440607  7.534787  2.849752
  C    -0.851861  3.434761  2.319829
  C    -0.864567  7.240418  2.305967
  N     1.440297  3.657861  2.120417
  N     1.373784  7.719418  1.921145
  N    -0.846681  3.614735  1.013754
  N    -0.931832  7.263061  0.965566
  N    -1.278468  3.051347  4.829387
  N    -1.165661  7.610186  4.899187
  S    -2.111867  3.023689  3.375165
  S    -2.148010  7.376418  3.614676
  S     0.771664  3.941080  0.615125
  S     0.639774  7.501112  0.468708
  S     0.345154  3.385747  4.716509
  S     0.466821  7.679615  4.630738
