16  
    
  C    -5.498475  1.029373  1.318484
  C    -5.324806  5.221994  1.449918
  C    -6.608286  0.519308  0.577890
  C    -6.405565  4.496760  0.815554
  N    -4.547408  1.437895  0.517638
  N    -4.331627  5.488957  0.646950
  N    -6.438503  0.485157 -0.723534
  N    -6.189631  4.288705 -0.436275
  N    -7.275471  0.623384  3.090729
  N    -6.971761  4.303334  3.250249
  S    -7.937300  0.067009  1.625266
  S    -7.643908  3.879875  1.791707
  S    -4.930289  1.082596 -1.053121
  S    -4.685336  4.829013 -0.846905
  S    -5.696895  1.127244  3.074005
  S    -5.570190  5.204479  3.145963
