16  
    
  C    -0.215375  3.227520  2.628691
  C    -0.097270  6.962778  2.458526
  C    -1.331611  2.586804  1.952843
  C    -1.255035  6.614044  1.786373
  N     0.690470  3.710426  1.780847
  N     0.915638  7.247574  1.678249
  N    -1.133082  2.312952  0.661091
  N    -1.198391  6.658996  0.481657
  N    -1.916126  2.847668  4.454273
  N    -1.867163  6.488546  4.275288
  S    -2.639884  2.267244  3.083664
  S    -2.554235  6.029018  2.840464
  S     0.401024  2.966779  0.317680
  S     0.361779  7.152387  0.108867
  S    -0.380906  3.494098  4.340301
  S    -0.264522  6.926714  4.176953
