16  
    
  C    -1.289293  3.329239  2.107121
  C    -1.008973  6.838280  2.574326
  C    -2.361506  2.626753  1.529455
  C    -2.310832  6.657306  1.953111
  N    -0.351757  3.627818  1.207525
  N     0.023305  7.221040  1.772792
  N    -2.417405  2.712752  0.182141
  N    -2.227548  6.648109  0.591746
  N    -2.872782  2.886362  4.087638
  N    -2.761540  6.734541  4.516700
  S    -3.596893  2.224124  2.714328
  S    -3.659621  6.709472  3.114535
  S    -0.941109  3.261023 -0.307391
  S    -0.631562  7.023620  0.230818
  S    -1.394741  3.664027  3.799215
  S    -1.143071  6.959464  4.331806
