16  
    
  C     1.935344  4.832954  2.995328
  C     2.357020  8.544774  3.141960
  C     0.850746  4.088730  2.363968
  C     1.150523  8.065717  2.502535
  N     2.963887  5.094670  2.156258
  N     3.374213  8.629045  2.283051
  N     1.006831  4.082736  1.033731
  N     1.272325  7.898516  1.216857
  N     0.292621  4.330413  4.815092
  N     0.463117  8.321503  4.939940
  S    -0.542498  4.080172  3.449929
  S    -0.187772  7.742563  3.497412
  S     2.548679  4.608118  0.658129
  S     2.749041  8.280419  0.749798
  S     1.804012  5.039879  4.753372
  S     2.047902  8.825495  4.891620
