16  
    
  C    -1.702672  2.525362  2.425095
  C    -1.751886  6.087344  2.431334
  C    -2.947178  2.124749  1.736280
  C    -2.942936  5.595674  1.701672
  N    -0.666191  2.683078  1.600891
  N    -0.733299  6.468956  1.620266
  N    -2.802243  2.026501  0.406265
  N    -2.725707  5.443664  0.367216
  N    -3.564866  2.335015  4.217608
  N    -3.583113  5.728968  4.224485
  S    -4.386336  2.171084  2.768455
  S    -4.300543  5.374490  2.715609
  S    -1.233824  2.376235  0.081342
  S    -1.104537  5.872722  0.091774
  S    -1.936589  2.681359  4.129971
  S    -1.939205  6.148776  4.205368
