16  
    
  C    -2.387753  2.219497  1.999246
  C    -2.503747  5.647316  2.098615
  C    -3.681915  1.929452  1.449989
  C    -3.722587  5.296532  1.355795
  N    -1.395487  1.977080  1.159471
  N    -1.433616  5.803900  1.334242
  N    -3.709531  1.618084  0.164306
  N    -3.563932  5.150511  0.037123
  N    -4.145728  2.208889  3.937116
  N    -4.406393  5.540743  3.885837
  S    -5.061154  2.102525  2.539598
  S    -5.083294  5.316292  2.403645
  S    -2.173562  1.574095 -0.303925
  S    -1.907079  5.380766 -0.213116
  S    -2.453879  2.335371  3.721926
  S    -2.779323  5.992070  3.814554
