16  
    
  C     1.034015  4.178113  2.598500
  C     1.112686  7.930187  3.099783
  C    -0.052934  3.420362  2.048139
  C    -0.102765  7.486160  2.494116
  N     2.012245  4.305131  1.754166
  N     2.191463  7.979375  2.300429
  N     0.115057  3.072918  0.790762
  N    -0.039469  7.242151  1.157793
  N    -0.888908  4.203175  4.333767
  N    -0.621453  7.759330  5.115002
  S    -1.388646  3.298682  3.087748
  S    -1.425554  7.466880  3.716093
  S     1.676656  3.489017  0.397357
  S     1.566066  7.560078  0.827472
  S     0.754672  4.712763  4.280553
  S     1.009975  8.091044  4.854315
