16  
    
  C    -3.622083  1.757204  2.024590
  C    -3.353538  5.301528  2.063427
  C    -4.700791  1.037556  1.373631
  C    -4.659039  4.917120  1.486526
  N    -2.517676  2.049713  1.333393
  N    -2.433493  5.312383  1.131937
  N    -4.406204  0.779635  0.111279
  N    -4.631986  4.574227  0.173887
  N    -5.585959  1.492365  3.708951
  N    -5.026229  5.354865  4.029876
  S    -6.153816  0.781140  2.301262
  S    -5.934253  4.923220  2.646926
  S    -2.893663  1.368251 -0.184538
  S    -3.044001  4.889804 -0.323444
  S    -3.994026  2.050678  3.729965
  S    -3.451069  5.756955  3.826974
