16  
    
  C     3.205672  4.945939  3.470249
  C     3.300637  9.234851  3.728089
  C     1.951771  4.736830  2.748749
  C     2.144166  8.861651  2.942418
  N     4.210013  5.182763  2.650087
  N     4.445385  9.299315  3.118426
  N     2.123707  4.489622  1.427689
  N     2.442678  8.626659  1.670166
  N     1.395089  5.099163  5.197406
  N     1.418669  8.828584  5.497526
  S     0.566078  4.546839  3.794154
  S     0.672875  8.775855  3.947712
  S     3.745742  4.807820  1.168388
  S     4.129058  9.007176  1.514188
  S     3.067234  5.249882  5.144577
  S     3.095597  9.269354  5.405561
