16  
    
  C     2.016467  4.236006  3.097526
  C     2.009477  7.977896  3.130144
  C     0.717289  4.064484  2.532597
  C     0.792683  7.606594  2.395878
  N     3.011747  4.293886  2.218137
  N     3.101283  8.044985  2.382129
  N     0.711104  3.881523  1.228912
  N     0.979574  7.479405  1.096427
  N     0.268611  4.231538  4.942750
  N     0.193994  7.633699  4.895355
  S    -0.616662  3.970659  3.624869
  S    -0.583768  7.297217  3.478858
  S     2.334986  3.908311  0.687711
  S     2.585673  7.861220  0.837714
  S     1.828422  4.700427  4.750375
  S     1.760981  8.133234  4.821286
