16  
    
  C    -2.410013  2.148226  2.109196
  C    -2.569950  5.610440  2.065734
  C    -3.685097  1.879000  1.483850
  C    -3.859608  5.265829  1.470307
  N    -1.356462  2.105573  1.269033
  N    -1.546600  5.893663  1.230284
  N    -3.615896  1.833112  0.148888
  N    -3.756799  5.161022  0.134831
  N    -4.138441  2.161486  4.007763
  N    -4.411472  5.415776  3.978819
  S    -4.970389  1.969710  2.577690
  S    -5.195931  4.934233  2.615523
  S    -2.047745  1.887201 -0.262213
  S    -2.191449  5.556628 -0.296654
  S    -2.452742  2.339246  3.847828
  S    -2.742853  5.715022  3.820960
