16  
    
  C    -3.748732  1.945459  1.938787
  C    -3.560887  5.440381  1.909887
  C    -4.721592  1.055013  1.311466
  C    -4.770717  4.894613  1.395997
  N    -2.808822  2.362146  1.112819
  N    -2.588608  5.464877  1.045878
  N    -4.352282  0.797814  0.069727
  N    -4.739735  4.541693  0.102473
  N    -5.534450  1.363663  3.754444
  N    -5.207958  5.322426  3.965195
  S    -6.005655  0.500751  2.344149
  S    -6.053191  4.934037  2.541368
  S    -2.997466  1.682256 -0.341193
  S    -3.186889  4.876948 -0.423993
  S    -4.231793  2.402009  3.558199
  S    -3.586133  5.813077  3.689469
