16  
    
  C     0.004557  3.220019  2.587913
  C    -0.022232  7.091093  2.575458
  C    -1.115766  2.665669  1.887382
  C    -1.179866  6.592136  1.930704
  N     0.909334  3.748121  1.779889
  N     1.004004  7.478603  1.792478
  N    -0.924520  2.413065  0.590896
  N    -1.164425  6.646310  0.574305
  N    -1.860701  2.911341  4.316077
  N    -1.805907  6.489347  4.502280
  S    -2.498934  2.295939  2.895604
  S    -2.560893  6.346813  3.014507
  S     0.516306  3.165943  0.237648
  S     0.366252  7.202000  0.203591
  S    -0.343631  3.527523  4.333983
  S    -0.234303  6.965787  4.376759
