16  
    
  C     2.929335  5.014100  3.609549
  C     3.066786  8.608887  3.575043
  C     1.650670  5.046133  2.918502
  C     1.857622  8.392125  2.869251
  N     3.982395  5.120466  2.800848
  N     4.162540  8.574964  2.752731
  N     1.778284  4.838988  1.591895
  N     1.945586  8.245228  1.522085
  N     1.133888  5.197963  5.512121
  N     0.966913  8.737960  5.223004
  S     0.313329  5.085707  4.114174
  S     0.412552  8.297919  3.729382
  S     3.407060  4.909286  1.249184
  S     3.500225  8.388859  1.214981
  S     2.774523  5.237080  5.367382
  S     2.635523  9.037749  5.271581
