16  
    
  C    -3.314904  1.926304  2.030351
  C    -3.111600  5.459020  2.073760
  C    -4.512688  1.489078  1.386828
  C    -4.239510  4.836967  1.495770
  N    -2.352373  2.156559  1.141058
  N    -2.102458  5.817187  1.309386
  N    -4.421567  1.302968  0.072453
  N    -4.028372  4.619432  0.193222
  N    -5.006215  1.543932  3.964996
  N    -4.907821  5.180571  3.989229
  S    -5.807094  1.116305  2.535007
  S    -5.559374  4.489048  2.579982
  S    -2.872125  1.813115 -0.389723
  S    -2.574768  5.256277 -0.222096
  S    -3.312390  1.870832  3.803675
  S    -3.400885  5.815536  3.726865
