16  
    
  C    -1.824695  2.330653  2.003799
  C    -1.862269  6.068011  2.143599
  C    -2.968493  1.981553  1.257850
  C    -3.052994  5.701965  1.437765
  N    -0.734539  2.390521  1.248282
  N    -0.858148  6.326831  1.306363
  N    -2.817672  1.837781 -0.050803
  N    -2.937611  5.545181  0.115082
  N    -3.671791  1.995131  3.800556
  N    -3.577538  5.899427  4.032673
  S    -4.406444  1.894269  2.299094
  S    -4.380361  5.736577  2.590607
  S    -1.190491  2.106029 -0.303341
  S    -1.260429  5.865175 -0.237693
  S    -2.024170  2.406207  3.746731
  S    -1.993443  6.297710  3.790689
