16  
    
  C     0.994864  4.046725  2.646808
  C     1.578260  8.636539  3.098766
  C    -0.181266  3.648675  1.901232
  C     0.375707  8.211917  2.479274
  N     2.071413  4.407023  1.953716
  N     2.546844  8.804540  2.222089
  N     0.021874  3.443264  0.600164
  N     0.418990  8.140839  1.184154
  N    -0.927704  3.822107  4.399915
  N    -0.128209  8.281767  4.921795
  S    -1.544710  3.133627  2.947907
  S    -0.965328  8.001863  3.520973
  S     1.599098  4.049844  0.328683
  S     1.984116  8.426517  0.684764
  S     0.620350  4.404282  4.348907
  S     1.432631  8.805243  4.797248
