16  
    
  C    -5.432265  1.182952  1.622657
  C    -5.196825  4.798617  1.401022
  C    -6.725609  0.883204  0.986814
  C    -6.454462  4.431176  0.846400
  N    -4.400203  1.058545  0.791131
  N    -4.147292  4.710284  0.594687
  N    -6.630956  0.723073 -0.335774
  N    -6.371419  4.072446 -0.440667
  N    -7.182310  1.089001  3.494116
  N    -6.865812  4.819662  3.397825
  S    -8.046718  0.848988  2.048148
  S    -7.749920  4.412359  2.052736
  S    -4.998936  0.838296 -0.727472
  S    -4.746486  4.141337 -0.851949
  S    -5.520009  1.272032  3.360927
  S    -5.245770  5.074036  3.105627
