16  
    
  C     0.654254  3.533017  2.679969
  C     0.657096  7.716530  2.686440
  C    -0.679902  3.337074  2.181747
  C    -0.543604  6.979780  2.112873
  N     1.645113  3.897057  1.849451
  N     1.601015  8.036198  1.808001
  N    -0.692109  3.403423  0.865451
  N    -0.496900  6.841939  0.784471
  N    -1.000911  3.248481  4.714658
  N    -1.037509  7.311794  4.639011
  S    -1.955613  3.083579  3.337618
  S    -1.798533  6.629174  3.286408
  S     0.906853  3.664232  0.314427
  S     0.957695  7.495325  0.327098
  S     0.622291  3.495897  4.406615
  S     0.544111  7.841214  4.436882
