16  
    
  C     1.284882  4.498469  3.207394
  C     1.613334  7.953245  3.118789
  C    -0.053338  4.266663  2.671573
  C     0.342722  7.788248  2.420046
  N     2.203512  4.715803  2.247896
  N     2.667513  7.988643  2.271514
  N    -0.014078  3.964374  1.363765
  N     0.417681  7.613359  1.098094
  N    -0.222081  4.172986  5.207152
  N    -0.265654  8.144794  4.899371
  S    -1.280039  3.895323  3.956987
  S    -1.042984  8.217794  3.449944
  S     1.456991  4.401187  0.850032
  S     2.005077  7.701514  0.722963
  S     1.338597  4.658800  4.907027
  S     1.392857  8.189969  4.852052
