16  
    
  C     2.989313  5.071172  3.216664
  C     2.929637  9.229298  3.757103
  C     1.802959  4.482042  2.611151
  C     1.786162  8.731356  3.127048
  N     4.009960  5.243111  2.355280
  N     4.031672  9.383744  2.972371
  N     1.861966  4.403953  1.295704
  N     2.017664  8.443764  1.825192
  N     1.155427  4.997783  5.079248
  N     1.127531  8.722402  5.587705
  S     0.482477  4.368811  3.735735
  S     0.480994  8.251859  4.096981
  S     3.381459  4.777356  0.834994
  S     3.490443  8.930623  1.439339
  S     2.720741  5.408153  4.942465
  S     2.601115  9.449489  5.481251
