16  
    
  C     3.353365  5.388033  3.554747
  C     3.661672  9.323335  3.496462
  C     2.150696  4.866127  2.874354
  C     2.528658  8.694137  2.903147
  N     4.350938  5.577492  2.665798
  N     4.621040  9.496005  2.573402
  N     2.202630  4.799128  1.544506
  N     2.554808  8.419892  1.611552
  N     1.601699  4.921855  5.452778
  N     1.943918  8.731017  5.293186
  S     0.856751  4.532959  4.041311
  S     1.234419  8.132964  3.918955
  S     3.760282  5.137568  1.107168
  S     3.958675  8.949678  1.102502
  S     3.224041  5.351758  5.305650
  S     3.424865  9.423535  5.205726
