16  
    
  C    -0.840577  3.190392  2.378338
  C    -0.829582  6.425945  2.453189
  C    -2.046805  2.625190  1.873718
  C    -2.028812  6.036136  1.751487
  N     0.225963  3.204976  1.553644
  N     0.261976  6.568841  1.722842
  N    -1.932313  2.438867  0.541686
  N    -1.776461  5.773266  0.459882
  N    -2.419681  2.794285  4.341215
  N    -2.707017  6.391627  4.218924
  S    -3.332538  2.609909  3.014652
  S    -3.441398  5.849935  2.841306
  S    -0.423498  2.889512  0.071387
  S    -0.121155  6.202240  0.152559
  S    -0.854120  3.269581  4.165275
  S    -1.081076  6.628307  4.141079
