16  
    
  C     0.756893  3.853765  3.151477
  C     1.144617  7.546246  2.941155
  C    -0.464509  3.332139  2.493937
  C    -0.055315  6.990787  2.231583
  N     1.816240  3.887142  2.300873
  N     2.248289  7.704068  2.205268
  N    -0.442956  3.287475  1.146019
  N     0.232175  6.693567  0.948393
  N    -0.841894  3.332964  5.076055
  N    -0.772714  7.654819  4.614865
  S    -1.728836  3.199450  3.610225
  S    -1.411464  6.943974  3.268745
  S     1.171288  3.640967  0.727131
  S     1.796333  7.148402  0.686131
  S     0.726177  3.746722  4.914616
  S     0.875808  7.963234  4.586324
