16  
    
  C     3.152835  5.024801  3.405835
  C     3.278541  9.200682  3.728178
  C     1.935655  4.748323  2.713550
  C     2.114410  8.854529  2.938158
  N     4.249783  5.185855  2.660214
  N     4.432253  9.374680  3.049422
  N     2.164720  4.470474  1.444238
  N     2.447131  8.666210  1.684816
  N     1.368800  5.026517  5.197668
  N     1.451625  8.774848  5.427580
  S     0.588536  4.510193  3.809367
  S     0.713035  8.755873  3.919542
  S     3.742321  4.819490  1.172048
  S     4.084354  8.979085  1.517453
  S     3.055470  5.258804  5.121805
  S     3.035188  9.279345  5.446961
