16  
    
  C    -1.482643  3.447213  2.031494
  C    -0.969930  6.914783  2.525173
  C    -2.469209  2.618031  1.397420
  C    -2.274727  6.825589  1.923644
  N    -0.541664  3.772092  1.183413
  N     0.025924  6.906391  1.623329
  N    -2.393623  2.438637  0.100334
  N    -2.234848  6.784879  0.608497
  N    -3.075044  2.785841  3.945403
  N    -2.710597  6.786044  4.437232
  S    -3.779929  2.201545  2.526238
  S    -3.587250  6.602396  3.074032
  S    -0.903178  3.108824 -0.316838
  S    -0.624770  6.919846  0.081003
  S    -1.575573  3.531097  3.776482
  S    -1.093966  7.053746  4.269391
