16  
    
  C    -2.642830  2.184246  2.033797
  C    -2.576349  5.833044  2.102601
  C    -3.871592  1.863612  1.324223
  C    -3.763462  5.401342  1.422090
  N    -1.604364  2.204712  1.215362
  N    -1.433781  5.818707  1.389627
  N    -3.791901  1.861237 -0.010422
  N    -3.545230  5.031201  0.135322
  N    -4.499991  1.943431  3.818857
  N    -4.442803  5.780296  3.852761
  S    -5.259054  1.853197  2.335791
  S    -5.205078  5.286866  2.398504
  S    -2.204201  2.105716 -0.358589
  S    -1.987528  5.392101 -0.178384
  S    -2.907616  2.454126  3.740478
  S    -2.826740  6.177603  3.762183
