16  
    
  C     3.027451  4.965175  3.236372
  C     3.015624  9.262585  3.782453
  C     1.788796  4.527465  2.633528
  C     1.836893  8.696707  3.100086
  N     3.938490  5.315419  2.335631
  N     4.033652  9.415940  2.942198
  N     1.850231  4.355375  1.310463
  N     2.002726  8.361876  1.874456
  N     1.148224  5.010308  5.080683
  N     1.118832  8.676376  5.478762
  S     0.467679  4.300900  3.768145
  S     0.484539  8.220157  4.030053
  S     3.357256  4.786444  0.839423
  S     3.450434  8.969108  1.375101
  S     2.760377  5.434541  4.896300
  S     2.581125  9.441290  5.491137
