16  
    
  C    -1.166138  3.142382  2.183850
  C    -1.066405  6.804142  2.549141
  C    -2.464495  2.866396  1.670169
  C    -2.325009  6.583683  1.912784
  N    -0.201516  3.315058  1.282850
  N    -0.090298  6.970637  1.682630
  N    -2.495949  2.572834  0.379995
  N    -2.310788  6.677634  0.607339
  N    -2.752904  2.967008  4.246902
  N    -2.774660  6.882088  4.491435
  S    -3.706881  2.658914  2.904577
  S    -3.626543  6.543696  3.063055
  S    -0.979483  3.043133 -0.182578
  S    -0.725821  7.000509  0.185672
  S    -1.145673  3.319991  3.912941
  S    -1.154697  7.112229  4.206381
