16  
    
  C     1.024458  4.475252  2.874429
  C     1.650679  8.643312  2.930624
  C    -0.014578  3.819141  2.145416
  C     0.463463  8.040358  2.320914
  N     2.131198  4.643759  2.117151
  N     2.679256  8.884483  2.106529
  N     0.249529  3.709212  0.843924
  N     0.579741  7.836986  0.987769
  N    -0.870209  3.814869  4.573413
  N    -0.086921  8.444994  4.891886
  S    -1.493821  3.452546  3.061570
  S    -0.920011  8.074731  3.485312
  S     1.752193  4.264835  0.579008
  S     2.114922  8.322895  0.619604
  S     0.772879  4.337785  4.586560
  S     1.510583  8.914623  4.646565
