16  
    
  C    -0.777387  2.964075  2.505294
  C    -1.183553  6.486037  2.510779
  C    -1.987638  2.499004  1.893874
  C    -2.341015  5.935088  1.814323
  N     0.297246  2.973103  1.720659
  N    -0.194845  6.829449  1.687476
  N    -1.856382  2.491056  0.562893
  N    -2.181983  5.833965  0.470122
  N    -2.475327  2.835256  4.339672
  N    -2.948791  5.981582  4.413676
  S    -3.304739  2.424974  3.016545
  S    -3.689794  5.619310  2.944729
  S    -0.258157  2.716301  0.207323
  S    -0.512073  6.265813  0.136523
  S    -0.936336  3.276547  4.216290
  S    -1.423175  6.549920  4.219683
