16  
    
  C     2.146451  4.741985  3.178712
  C     1.968434  8.935189  3.387407
  C     0.908827  4.521939  2.521292
  C     0.790191  8.437249  2.734752
  N     3.084888  5.158778  2.321452
  N     3.011916  9.189401  2.596255
  N     1.015888  4.395183  1.200027
  N     1.030216  8.208206  1.453390
  N     0.451232  4.332212  5.115748
  N     0.274157  8.530202  5.277992
  S    -0.302254  4.069242  3.558978
  S    -0.525531  8.285022  3.849833
  S     2.495911  4.927369  0.789366
  S     2.620969  8.589242  1.132721
  S     2.085332  4.686625  4.911572
  S     1.895947  8.958637  5.079430
