16  
    
  C     3.243961  4.930140  3.471852
  C     3.514345  8.940895  3.809394
  C     1.976329  4.820374  2.816668
  C     2.274601  8.760816  3.059107
  N     4.283900  5.010947  2.633885
  N     4.546717  9.035910  3.005635
  N     2.065126  4.468422  1.524354
  N     2.301075  8.767744  1.764116
  N     1.351533  5.157962  5.299913
  N     1.443641  9.293985  5.497827
  S     0.600113  4.742305  3.846323
  S     0.872708  8.860923  3.975868
  S     3.671900  4.771408  1.116178
  S     3.974549  8.811521  1.407436
  S     2.991317  5.219738  5.208678
  S     3.173311  9.224953  5.544237
