16  
    
  C     0.243649  3.340957  2.375827
  C     0.140319  7.344315  2.848933
  C    -1.047692  3.045878  1.711046
  C    -1.086367  6.822523  2.182830
  N     1.164296  3.697538  1.514632
  N     1.202309  7.341843  2.036494
  N    -0.932401  2.936210  0.405417
  N    -0.951497  6.658679  0.852344
  N    -1.501565  2.832153  4.185594
  N    -1.774791  7.111207  4.602810
  S    -2.355713  2.698950  2.786264
  S    -2.401161  6.464330  3.187826
  S     0.585264  3.435047 -0.005667
  S     0.594554  7.034864  0.545803
  S     0.014924  3.430818  4.079753
  S    -0.140408  7.592290  4.581748
