16  
    
  C    -0.696277  3.272100  2.743483
  C    -1.331983  6.568501  2.622678
  C    -1.877886  2.699813  2.183795
  C    -2.477840  6.127851  1.831982
  N     0.430866  3.226651  2.000785
  N    -0.195541  6.877346  1.956680
  N    -1.735108  2.379968  0.893272
  N    -2.121611  5.968716  0.539350
  N    -2.399032  3.103119  4.600252
  N    -3.153791  6.090210  4.270120
  S    -3.228867  2.794805  3.248906
  S    -3.831581  5.643202  2.787974
  S    -0.150769  2.686920  0.498380
  S    -0.649517  6.612326  0.418659
  S    -0.805003  3.511995  4.515396
  S    -1.579375  6.697821  4.291478
