16  
    
  C     0.435141  3.660348  2.936815
  C     0.451574  7.532238  2.842397
  C    -0.840820  3.673687  2.384200
  C    -0.802189  7.231061  2.193654
  N     1.458578  3.944705  2.094874
  N     1.563116  7.594889  2.103811
  N    -0.833518  3.681247  1.048771
  N    -0.637833  7.050201  0.876916
  N    -1.106499  3.223811  4.932353
  N    -1.328336  7.473063  4.830961
  S    -2.071346  3.299041  3.555878
  S    -2.122075  7.088034  3.417423
  S     0.708537  3.909341  0.610154
  S     0.942213  7.196393  0.582439
  S     0.509878  3.337386  4.663548
  S     0.300728  7.846079  4.597587
