16  
    
  C     0.837048  4.125354  2.478572
  C     1.554727  8.298626  3.209722
  C    -0.301297  3.447786  1.883510
  C     0.252151  8.156573  2.542184
  N     1.817237  4.299874  1.608065
  N     2.591520  8.473445  2.374368
  N    -0.080534  3.155479  0.599351
  N     0.263158  8.121043  1.199630
  N    -0.867324  3.789414  4.335022
  N    -0.230075  8.201649  5.077657
  S    -1.594522  3.122621  3.002248
  S    -1.079677  7.976779  3.668059
  S     1.423650  3.667578  0.184315
  S     1.873385  8.332429  0.879885
  S     0.692580  4.231254  4.216394
  S     1.436719  8.426381  4.940796
