16  
    
  C     3.066176  5.171421  3.427264
  C     3.431482  9.061312  3.544063
  C     2.022806  4.372906  2.750134
  C     2.134509  8.683800  2.989694
  N     4.044659  5.486852  2.579927
  N     4.392615  9.000579  2.627464
  N     2.134631  4.342370  1.416833
  N     2.044314  8.417050  1.733577
  N     1.148860  5.042087  5.078704
  N     1.609048  8.819085  5.442863
  S     0.597034  4.149118  3.785615
  S     0.741457  8.600767  4.069864
  S     3.697087  4.986293  1.070099
  S     3.592536  8.748881  1.107731
  S     2.779849  5.401520  5.141504
  S     3.184738  9.290362  5.310029
