16  
    
  C     2.868821  5.022403  3.628979
  C     3.013710  8.622653  3.579854
  C     1.616860  4.997519  2.932371
  C     1.806127  8.318502  2.817312
  N     3.948384  4.945032  2.853731
  N     4.053429  8.655470  2.783509
  N     1.724650  4.788221  1.610250
  N     1.894012  8.238448  1.534705
  N     1.168141  5.339513  5.560535
  N     1.061075  8.720574  5.204457
  S     0.328440  5.134352  4.125619
  S     0.409414  8.386346  3.768519
  S     3.357880  4.925195  1.267604
  S     3.502467  8.320470  1.173366
  S     2.832180  5.244116  5.323081
  S     2.645164  9.053488  5.238246
