16  
    
  C    -3.704350  1.731505  1.812074
  C    -3.905955  5.349256  1.814086
  C    -4.944661  1.494599  1.169461
  C    -5.117489  4.931022  1.068180
  N    -2.726701  2.024076  0.962298
  N    -2.847432  5.741461  1.131426
  N    -4.877608  1.346929 -0.149474
  N    -4.907053  5.053327 -0.239398
  N    -5.474685  1.606326  3.746552
  N    -5.780070  4.716514  3.517999
  S    -6.218957  1.111054  2.343496
  S    -6.517027  4.493892  2.054906
  S    -3.341709  1.747995 -0.567117
  S    -3.335097  5.514781 -0.509060
  S    -3.812742  1.795516  3.599119
  S    -4.226964  5.453082  3.509815
