16  
    
  C    -0.731019  3.080624  2.475172
  C    -0.844022  6.293580  2.477465
  C    -1.980608  2.686230  1.820735
  C    -2.016200  5.899907  1.739569
  N     0.199948  3.283508  1.550916
  N     0.241349  6.583516  1.718444
  N    -1.938175  2.382626  0.523056
  N    -1.806395  5.856945  0.400154
  N    -2.442006  2.751303  4.423849
  N    -2.804314  6.416951  4.240615
  S    -3.265749  2.577838  2.971739
  S    -3.509564  5.767673  2.900947
  S    -0.404630  2.842602  0.061711
  S    -0.203960  6.187070  0.144982
  S    -0.827859  3.244102  4.162096
  S    -1.180783  6.636267  4.194195
