16  
    
  C     2.907830  5.313526  3.551451
  C     2.960033  8.723124  3.420682
  C     1.742136  4.811300  2.853584
  C     1.843430  8.143689  2.732390
  N     3.979507  5.473943  2.774708
  N     3.927856  9.178232  2.622035
  N     1.872959  4.773853  1.545988
  N     1.960524  8.062611  1.434828
  N     1.092233  5.013215  5.284450
  N     1.033886  8.384766  5.211596
  S     0.411984  4.523599  3.828438
  S     0.457119  7.944417  3.656948
  S     3.418550  5.287534  1.231579
  S     3.473553  8.731498  1.068833
  S     2.698438  5.339588  5.258880
  S     2.636402  8.899793  5.171452
