16  
    
  C    -3.094991  2.135285  1.739512
  C    -3.041426  5.876300  1.988209
  C    -4.252436  1.652314  0.980656
  C    -4.321554  5.439208  1.452442
  N    -2.048785  2.497151  0.952159
  N    -2.121362  6.132902  1.039822
  N    -4.011337  1.454302 -0.325424
  N    -4.375456  5.385238  0.101923
  N    -5.002232  1.600432  3.482646
  N    -4.608918  5.450474  3.984154
  S    -5.470780  0.965173  2.060299
  S    -5.500396  5.319428  2.642508
  S    -2.486791  1.976978 -0.622011
  S    -2.850468  5.711095 -0.413914
  S    -3.456489  2.219816  3.437028
  S    -3.015416  6.029813  3.789459
