16  
    
  C    -1.702682  2.457426  2.399984
  C    -1.721825  6.245352  2.423235
  C    -2.927942  2.088968  1.710842
  C    -2.888352  5.703372  1.785097
  N    -0.675686  2.781853  1.642404
  N    -0.639797  6.353981  1.629705
  N    -2.717864  1.898797  0.420654
  N    -2.698445  5.486267  0.479903
  N    -3.564353  2.343445  4.188359
  N    -3.478678  5.732760  4.179694
  S    -4.276417  2.207412  2.718438
  S    -4.239148  5.395433  2.761859
  S    -1.116940  2.333651  0.093931
  S    -1.201442  5.933734  0.147369
  S    -1.942083  2.776580  4.093383
  S    -1.930630  6.283853  4.098146
