16  
    
  C    -0.037181  3.722829  2.455731
  C     0.370717  7.495393  2.748039
  C    -1.168390  2.963425  1.899843
  C    -0.805255  6.996371  2.090602
  N     0.978483  3.897485  1.610387
  N     1.423841  7.581648  1.937752
  N    -1.044060  2.667432  0.629211
  N    -0.687156  6.741727  0.779386
  N    -1.750896  3.485588  4.357338
  N    -1.487913  7.288794  4.622690
  S    -2.558684  2.882044  3.070863
  S    -2.176671  6.779937  3.210948
  S     0.459603  3.176355  0.204127
  S     0.829398  7.225416  0.329536
  S    -0.200144  4.035593  4.110438
  S     0.141454  7.716333  4.508895
