16  
    
  C    -5.431274  1.060001  1.294723
  C    -5.363467  4.752370  1.567772
  C    -6.591067  0.588535  0.572951
  C    -6.589502  4.327757  0.880516
  N    -4.443766  1.472865  0.487420
  N    -4.325898  5.156336  0.781749
  N    -6.458149  0.487243 -0.766401
  N    -6.452189  4.298423 -0.460647
  N    -7.175833  0.493554  3.131644
  N    -7.259103  4.533832  3.359886
  S    -7.875091  0.099343  1.636906
  S    -7.954160  4.100554  1.891258
  S    -4.896179  1.077202 -1.065824
  S    -4.928039  4.859698 -0.751001
  S    -5.596239  1.217152  3.043254
  S    -5.686101  5.044956  3.218536
