16  
    
  C    -2.396997  2.014584  2.024721
  C    -2.474717  5.712953  2.082795
  C    -3.744635  1.950416  1.441570
  C    -3.673785  5.309505  1.433581
  N    -1.400263  1.956373  1.122608
  N    -1.450503  5.760776  1.239080
  N    -3.735068  1.623787  0.150470
  N    -3.594616  5.183807  0.117128
  N    -4.064099  2.205252  3.909878
  N    -4.372462  5.459090  3.883072
  S    -5.011233  2.112174  2.560455
  S    -5.148643  5.263535  2.450504
  S    -2.122502  1.588747 -0.307674
  S    -1.943886  5.389698 -0.279363
  S    -2.427474  2.374358  3.767855
  S    -2.807011  5.941615  3.806227
