16  
    
  C    -0.367069  3.424234  2.605095
  C    -0.343717  6.898678  2.362495
  C    -1.646656  3.016102  2.024719
  C    -1.577420  6.520420  1.829225
  N     0.619014  3.424781  1.716783
  N     0.559075  7.199406  1.452494
  N    -1.642416  3.059204  0.704296
  N    -1.680719  6.386569  0.534994
  N    -1.975354  3.211470  4.535051
  N    -1.978840  6.692999  4.326142
  S    -2.938226  2.929380  3.217235
  S    -2.816130  6.238492  2.937104
  S    -0.051996  3.204403  0.220939
  S    -0.118574  6.736683 -0.002030
  S    -0.406490  3.572184  4.311515
  S    -0.386415  7.131834  4.122412
