16  
    
  C    -5.640851  0.829215  1.573726
  C    -5.759762  4.646169  1.315417
  C    -6.828128  0.473688  0.847307
  C    -7.001312  4.249677  0.693000
  N    -4.598769  0.937618  0.795871
  N    -4.814428  4.922787  0.464560
  N    -6.696072  0.274667 -0.449840
  N    -6.919001  4.085745 -0.587064
  N    -7.494270  0.480974  3.360301
  N    -7.482428  4.479355  3.211322
  S    -8.216658  0.273769  1.894905
  S    -8.280792  4.013280  1.828124
  S    -5.075248  0.572335 -0.785068
  S    -5.364961  4.545056 -1.049393
  S    -5.945198  1.090096  3.251304
  S    -5.875480  4.845719  2.994365
