16  
    
  C    -1.493980  3.452558  2.027988
  C    -0.966409  6.900464  2.531838
  C    -2.471094  2.619295  1.409178
  C    -2.263100  6.832722  1.930370
  N    -0.528028  3.760349  1.183865
  N     0.038096  6.900211  1.630563
  N    -2.387373  2.459172  0.106145
  N    -2.247931  6.770710  0.601105
  N    -3.069236  2.788849  3.953260
  N    -2.713795  6.798452  4.437500
  S    -3.769275  2.204827  2.529783
  S    -3.592348  6.600785  3.065404
  S    -0.905179  3.117722 -0.316018
  S    -0.631152  6.936071  0.090750
  S    -1.566814  3.539450  3.777708
  S    -1.089923  7.050914  4.280946
