16  
    
  C    -3.154830  1.935457  1.856277
  C    -3.131849  5.823606  2.095244
  C    -4.331972  1.440233  1.125306
  C    -4.358785  5.283043  1.519321
  N    -2.088972  2.103256  1.111888
  N    -2.171529  6.015510  1.208461
  N    -4.071484  1.239990 -0.144132
  N    -4.302959  5.132918  0.204851
  N    -5.109738  1.708304  3.430746
  N    -4.796537  5.382697  4.043725
  S    -5.729419  1.136911  2.006824
  S    -5.652002  4.994571  2.664819
  S    -2.478407  1.643021 -0.399302
  S    -2.831583  5.759585 -0.307900
  S    -3.503242  2.101178  3.578699
  S    -3.258680  5.776707  3.793567
