16  
    
  C     2.322986  4.779190  3.308630
  C     2.409085  8.671162  3.504664
  C     1.094791  4.451204  2.647939
  C     1.152080  8.358677  2.868148
  N     3.301929  4.995360  2.459697
  N     3.374422  8.864859  2.637333
  N     1.214359  4.311550  1.341541
  N     1.196838  8.394238  1.540732
  N     0.638880  4.254097  5.151339
  N     0.549050  8.727547  5.367426
  S    -0.144276  3.836221  3.737686
  S    -0.166761  8.151248  3.981059
  S     2.720016  4.781905  0.907674
  S     2.772141  8.624256  1.135938
  S     2.169911  4.706481  5.031643
  S     2.205462  9.056253  5.206745
