16  
    
  C    -0.025738  3.714011  2.459703
  C     0.373094  7.497957  2.749853
  C    -1.176227  2.970982  1.892391
  C    -0.802742  6.987364  2.101213
  N     0.973335  3.906615  1.604745
  N     1.424953  7.575845  1.935834
  N    -1.049540  2.671864  0.626521
  N    -0.687282  6.739661  0.794318
  N    -1.745140  3.488769  4.357495
  N    -1.484862  7.292443  4.623108
  S    -2.558218  2.887451  3.066194
  S    -2.174197  6.774045  3.210880
  S     0.457404  3.174692  0.201318
  S     0.831623  7.225324  0.327541
  S    -0.200784  4.034327  4.110719
  S     0.137703  7.722582  4.510594
