16  
    
  C    -5.378069  1.143696  1.302868
  C    -5.471308  4.773630  1.582982
  C    -6.552179  0.582992  0.660700
  C    -6.762321  4.478121  0.937936
  N    -4.320770  1.464468  0.521198
  N    -4.413781  4.943432  0.734658
  N    -6.435728  0.409420 -0.655393
  N    -6.663256  4.310870 -0.411167
  N    -7.152062  0.883283  3.193464
  N    -7.213929  4.540491  3.548718
  S    -7.819933  0.104126  1.773833
  S    -8.030758  4.172590  2.139816
  S    -4.876314  0.977767 -1.029534
  S    -5.069219  4.576015 -0.766877
  S    -5.498547  1.237549  3.061549
  S    -5.592115  4.860609  3.324332
