16  
    
  C    -5.379029  1.225579  1.427468
  C    -5.345736  4.549514  1.581475
  C    -6.642543  0.902998  0.785722
  C    -6.633094  4.208896  1.099661
  N    -4.306231  1.250619  0.601286
  N    -4.423927  4.754664  0.634120
  N    -6.522796  0.638020 -0.526895
  N    -6.673728  3.953639 -0.216294
  N    -7.127670  1.065809  3.395140
  N    -6.912746  4.784094  3.544542
  S    -7.879387  0.723504  1.938357
  S    -7.836122  4.074878  2.330415
  S    -4.900116  0.733898 -0.858325
  S    -5.155714  4.337236 -0.783137
  S    -5.450999  1.339127  3.152362
  S    -5.245186  4.715866  3.300134
