16  
    
  C    -1.296720  3.352352  2.059739
  C    -0.989021  6.810372  2.604747
  C    -2.441379  2.632932  1.513704
  C    -2.300259  6.596129  1.959538
  N    -0.330165  3.637252  1.208021
  N    -0.018586  7.172498  1.764022
  N    -2.405107  2.691390  0.209384
  N    -2.248143  6.699224  0.636666
  N    -2.893673  2.873038  4.054286
  N    -2.745041  6.777529  4.466092
  S    -3.614036  2.214549  2.694644
  S    -3.617324  6.699919  3.084948
  S    -0.935963  3.259238 -0.302235
  S    -0.636713  7.029429  0.230447
  S    -1.432942  3.661374  3.780027
  S    -1.138380  6.969130  4.308304
