16  
    
  C     2.974870  5.156973  3.390048
  C     2.847533  8.796893  3.378577
  C     1.757973  4.709530  2.784199
  C     1.668238  8.301797  2.670919
  N     3.885509  5.630008  2.546648
  N     3.922493  9.122930  2.623571
  N     1.839530  4.630713  1.469129
  N     1.869192  8.214260  1.344113
  N     1.117683  5.052652  5.276258
  N     1.208473  8.291821  5.223943
  S     0.425073  4.325345  3.906210
  S     0.402643  7.740115  3.823772
  S     3.392436  5.182553  1.014643
  S     3.444830  8.945975  1.069050
  S     2.703279  5.385527  5.170123
  S     2.668126  9.051881  5.001885
