16  
    
  C     0.690045  3.937094  2.874496
  C     0.604572  7.619515  2.711253
  C    -0.572034  3.439729  2.252598
  C    -0.585638  6.838568  2.269548
  N     1.729436  3.891642  2.077381
  N     1.568238  7.852198  1.801073
  N    -0.462253  3.230762  0.954034
  N    -0.532360  6.549528  0.954556
  N    -0.983006  3.633680  4.847264
  N    -0.898122  7.307938  4.730641
  S    -1.814900  3.213211  3.396816
  S    -1.750946  6.654685  3.484922
  S     1.083884  3.651911  0.508054
  S     0.895447  7.097901  0.446045
  S     0.589905  4.079730  4.618167
  S     0.520610  8.070159  4.365183
