16  
    
  C     2.040058  4.455800  3.354634
  C     1.500043  7.991017  3.021696
  C     0.760459  4.089243  2.715730
  C     0.409909  7.362549  2.334478
  N     2.973416  4.751248  2.445051
  N     2.519824  8.321890  2.241526
  N     0.837160  3.811320  1.405703
  N     0.596475  7.185030  1.038419
  N     0.247420  4.457770  5.147336
  N    -0.298139  7.630219  4.824349
  S    -0.530468  3.900812  3.807853
  S    -0.940961  6.977110  3.445335
  S     2.437455  4.196332  0.904468
  S     2.077734  7.954961  0.698412
  S     1.783177  4.917797  4.989570
  S     1.225554  8.235876  4.730794
