16  
    
  C     2.037547  4.361991  3.076226
  C     2.069219  7.901241  3.188805
  C     0.783178  4.092874  2.371698
  C     0.903477  7.542460  2.438481
  N     3.022116  4.414464  2.227870
  N     3.156688  8.058646  2.433818
  N     0.877276  3.616083  1.127384
  N     1.019947  7.431546  1.090370
  N     0.288347  4.349637  4.903347
  N     0.082454  8.006926  4.858718
  S    -0.516933  3.928468  3.534370
  S    -0.543703  7.407552  3.441577
  S     2.538777  3.987021  0.676321
  S     2.690239  7.723975  0.878885
  S     1.920914  4.812718  4.714460
  S     1.701795  8.293539  4.872816
