16  
    
  C    -5.338776  0.944594  1.757558
  C    -5.134437  4.686957  1.386431
  C    -6.571289  0.561525  1.108603
  C    -6.372108  4.319616  0.698853
  N    -4.309114  1.120301  0.953867
  N    -4.090959  4.849857  0.576595
  N    -6.458262  0.443175 -0.210824
  N    -6.208029  4.097094 -0.607247
  N    -7.194016  1.035195  3.661755
  N    -7.035924  4.954669  3.138977
  S    -7.873106  0.607937  2.193396
  S    -7.788140  4.452990  1.760071
  S    -4.838446  0.838031 -0.590170
  S    -4.603616  4.465662 -0.969688
  S    -5.512947  1.341098  3.452533
  S    -5.390495  5.257745  2.985874
