16  
    
  C    -4.538335  0.970402  1.676060
  C    -4.778522  4.525537  1.538209
  C    -5.775968  0.626205  0.983260
  C    -5.982601  4.244621  0.810051
  N    -3.473778  1.165459  0.881407
  N    -3.716611  4.945216  0.826400
  N    -5.721528  0.768754 -0.330092
  N    -5.838339  4.453469 -0.510024
  N    -6.315747  0.666749  3.641295
  N    -6.653215  4.297213  3.381665
  S    -7.073261  0.521202  2.147649
  S    -7.368636  3.937134  1.970886
  S    -4.029868  1.267727 -0.686328
  S    -4.259312  4.961038 -0.726631
  S    -4.647135  1.035643  3.449137
  S    -5.006192  4.448760  3.274890
