16  
    
  C    -4.553030  1.084716  1.552331
  C    -4.821959  4.685293  1.660521
  C    -5.847461  0.874272  0.929609
  C    -6.062031  4.381911  0.911318
  N    -3.488442  1.221174  0.766512
  N    -3.790602  4.839597  0.831782
  N    -5.780969  0.868337 -0.398836
  N    -5.987059  4.407081 -0.429642
  N    -6.367505  0.728954  3.339313
  N    -6.613569  4.198430  3.373975
  S    -7.221245  0.591069  1.933701
  S    -7.408065  4.079801  1.933383
  S    -4.144255  0.979865 -0.741859
  S    -4.399778  4.693163 -0.692717
  S    -4.696263  0.926764  3.269749
  S    -4.941932  4.535828  3.401501
