16  
    
  C     2.978214  5.178093  3.386407
  C     3.489692  9.103445  3.337984
  C     1.839396  4.684521  2.676132
  C     2.197474  8.691833  2.841274
  N     4.014467  5.555434  2.606722
  N     4.502024  9.105662  2.449701
  N     2.085830  4.418846  1.366809
  N     2.262647  8.307240  1.567424
  N     1.339267  4.725421  5.288421
  N     1.929222  9.017435  5.471654
  S     0.525207  4.306987  3.875960
  S     0.967841  8.586202  4.139674
  S     3.660895  4.895532  1.084787
  S     3.766177  8.691406  1.013625
  S     2.783269  5.555874  5.073929
  S     3.542338  9.283126  5.043947
