16  
    
  C    -3.107522  2.184877  1.708581
  C    -2.963655  5.887898  2.006747
  C    -4.160197  1.526644  1.007169
  C    -4.231205  5.501536  1.470509
  N    -2.050197  2.498870  0.968514
  N    -2.072639  6.092262  1.028419
  N    -4.021980  1.536516 -0.306605
  N    -4.317414  5.275352  0.198532
  N    -4.952117  1.602915  3.514417
  N    -4.546061  5.537432  4.012590
  S    -5.513127  1.019246  2.042891
  S    -5.514402  5.300981  2.599597
  S    -2.470623  2.074295 -0.606589
  S    -2.823900  5.755059 -0.375367
  S    -3.366813  2.277985  3.470376
  S    -3.009205  6.043697  3.707420
