16  
    
  C    -5.316192  1.160732  1.469702
  C    -5.252151  4.527388  1.526173
  C    -6.649791  0.970812  0.873950
  C    -6.560340  4.136132  1.015993
  N    -4.248628  1.182201  0.679644
  N    -4.280270  4.653561  0.622347
  N    -6.607329  0.632171 -0.416329
  N    -6.600265  3.931471 -0.319642
  N    -7.103344  1.107579  3.365921
  N    -6.881665  4.778926  3.561830
  S    -7.991216  0.872349  1.985373
  S    -7.758548  4.128755  2.319862
  S    -4.967175  0.803607 -0.848140
  S    -5.057438  4.275084 -0.811353
  S    -5.464708  1.342718  3.225141
  S    -5.219575  4.852341  3.255967
