16  
    
  C     1.638037  4.422198  3.462087
  C     1.419774  7.973965  3.054480
  C     0.327942  4.322573  2.879421
  C     0.209449  7.437879  2.362292
  N     2.604105  4.363376  2.522613
  N     2.420755  8.375140  2.258005
  N     0.313288  3.903123  1.620664
  N     0.317762  7.370376  1.033901
  N    -0.021293  4.647352  5.334964
  N    -0.375029  7.685306  4.887993
  S    -0.974362  4.222614  4.062982
  S    -1.132299  7.187190  3.502487
  S     1.919277  4.045544  1.071992
  S     1.888721  7.960004  0.773699
  S     1.590059  4.874475  5.110482
  S     1.189341  8.218491  4.759535
