16  
    
  C     2.006927  4.558540  3.264984
  C     1.615807  7.890139  3.067918
  C     0.782479  4.083777  2.662423
  C     0.385155  7.511451  2.341147
  N     3.032595  4.618318  2.467049
  N     2.676058  8.122638  2.261503
  N     0.870417  3.914624  1.377542
  N     0.483329  7.475073  0.997842
  N     0.342240  4.242989  5.209034
  N    -0.312563  7.630849  4.806193
  S    -0.425675  3.701226  3.830064
  S    -0.927031  7.081887  3.329660
  S     2.479756  4.384288  0.897107
  S     2.111104  7.783222  0.759115
  S     1.838373  4.916769  4.944748
  S     1.286152  8.071472  4.791327
