16  
    
  C    -6.075553  0.755148  1.350857
  C    -5.990451  4.419463  1.709928
  C    -7.315163  0.354827  0.721974
  C    -7.206816  3.985394  1.053648
  N    -5.153465  1.182538  0.514322
  N    -5.032089  4.778707  0.895182
  N    -7.186457  0.297474 -0.577634
  N    -7.100422  3.893559 -0.236383
  N    -7.725219  0.232942  3.222695
  N    -7.779022  3.744621  3.547306
  S    -8.529546  0.029562  1.786559
  S    -8.455804  3.325810  2.060142
  S    -5.689653  0.893020 -0.990335
  S    -5.605076  4.445643 -0.638976
  S    -6.100271  0.782270  3.077047
  S    -6.219508  4.329322  3.420780
