16  
    
  C     0.942475  4.077929  2.545776
  C     1.442689  7.860603  3.257777
  C    -0.141980  3.429428  1.881102
  C     0.162822  7.659013  2.614171
  N     2.039903  4.247928  1.823513
  N     2.464114  7.900756  2.395396
  N     0.107573  3.255473  0.603949
  N     0.222317  7.651975  1.270021
  N    -0.961860  3.692337  4.326603
  N    -0.300204  7.935299  5.148132
  S    -1.614489  3.239740  2.806382
  S    -1.203930  7.714073  3.707118
  S     1.619195  3.820912  0.284229
  S     1.872271  7.767954  0.900616
  S     0.598964  4.161178  4.273349
  S     1.357458  8.056314  4.947706
