16  
    
  C     0.511104  3.675226  2.934361
  C     0.543414  7.521564  2.888193
  C    -0.853285  3.521184  2.384107
  C    -0.595507  7.005322  2.180323
  N     1.479751  3.715234  2.040545
  N     1.636136  7.683074  2.142474
  N    -0.865285  3.535030  1.081315
  N    -0.349539  6.854704  0.896401
  N    -1.064944  3.584237  4.976238
  N    -1.382070  7.267965  4.577863
  S    -2.026714  3.289469  3.578614
  S    -2.037545  7.047597  3.083264
  S     0.756087  3.717719  0.556126
  S     1.314171  7.226436  0.556853
  S     0.522721  3.784770  4.663510
  S     0.160783  7.711732  4.571211
