16  
    
  C    -5.371035  1.085231  1.377481
  C    -5.502684  4.748637  1.587084
  C    -6.482223  0.452369  0.710313
  C    -6.738513  4.365652  1.035805
  N    -4.418046  1.351807  0.501484
  N    -4.504002  4.859271  0.739462
  N    -6.379571  0.425622 -0.619963
  N    -6.698331  4.285670 -0.277646
  N    -7.117741  0.903634  3.135063
  N    -7.087562  4.349660  3.561602
  S    -7.799277  0.231118  1.818620
  S    -8.025852  4.239564  2.186866
  S    -4.885989  0.968361 -1.006688
  S    -5.099554  4.520804 -0.747795
  S    -5.498778  1.292447  3.102407
  S    -5.540826  4.872259  3.260253
