16  
    
  C     2.194551  4.469961  3.062297
  C     2.040043  8.286528  3.148035
  C     1.053006  3.937203  2.281529
  C     0.863976  7.619337  2.587967
  N     3.337656  4.319164  2.424154
  N     3.085188  8.257360  2.302238
  N     1.282874  3.854899  0.974337
  N     0.930618  7.134557  1.333231
  N     0.241958  4.446420  4.698299
  N     0.066877  8.412418  4.927992
  S    -0.385499  3.853171  3.234366
  S    -0.518574  7.531233  3.594113
  S     2.991251  4.019713  0.818141
  S     2.543140  7.426649  0.944096
  S     1.882123  4.763386  4.753770
  S     1.642718  9.008018  4.718759
