16  
    
  C    -0.426624  3.485510  2.929883
  C    -0.976301  6.712755  2.724695
  C    -1.601979  2.849233  2.306330
  C    -2.042162  6.284355  1.892724
  N     0.646629  3.607603  2.125109
  N     0.149508  7.097406  2.108269
  N    -1.418462  2.660682  1.013069
  N    -1.719228  6.151662  0.597652
  N    -2.243234  3.370309  4.682737
  N    -2.963798  6.371557  4.331481
  S    -2.976886  2.820881  3.344263
  S    -3.519982  6.035697  2.793478
  S     0.110025  3.092469  0.621162
  S    -0.091937  6.602156  0.532640
  S    -0.650711  3.747351  4.658603
  S    -1.402111  6.974921  4.392213
