16  
    
  C    -1.527705  2.619859  2.327259
  C    -1.471178  6.474554  2.282803
  C    -2.699140  2.173087  1.590027
  C    -2.695210  5.901686  1.672633
  N    -0.415347  2.720575  1.633206
  N    -0.482942  6.622129  1.425257
  N    -2.377042  1.868185  0.351380
  N    -2.632645  5.680776  0.356849
  N    -3.452609  2.460150  4.029634
  N    -3.191000  6.236021  4.218887
  S    -4.044825  1.793701  2.623452
  S    -4.058188  5.829232  2.817656
  S    -0.800922  2.285905  0.073033
  S    -1.076061  6.153044 -0.080090
  S    -1.883210  3.044512  4.011683
  S    -1.596905  6.650072  4.064296
