16  
    
  C     2.974473  5.205095  3.378091
  C     3.553411  9.069784  3.321145
  C     1.849766  4.661324  2.694568
  C     2.220185  8.665242  2.838560
  N     4.023916  5.530262  2.608861
  N     4.534389  9.117528  2.437538
  N     2.055340  4.435720  1.411830
  N     2.243362  8.299343  1.595409
  N     1.332462  4.755661  5.268904
  N     1.946647  9.016265  5.454337
  S     0.547041  4.312423  3.869513
  S     1.014684  8.585606  4.110832
  S     3.647517  4.915606  1.106165
  S     3.775799  8.705116  0.981466
  S     2.799014  5.548646  5.058055
  S     3.541184  9.309515  5.082356
