16  
    
  C    -0.377701  3.261588  2.709819
  C    -0.345510  7.029362  2.489756
  C    -1.439216  2.533391  2.078681
  C    -1.436894  6.409947  1.882278
  N     0.591999  3.677324  1.884572
  N     0.761643  7.129453  1.794035
  N    -1.101993  2.176295  0.851234
  N    -1.237015  6.110516  0.615166
  N    -2.276744  3.049247  4.481604
  N    -2.166486  6.966046  4.237400
  S    -2.810051  2.309518  3.089666
  S    -2.872563  6.384514  2.833012
  S     0.416801  2.816952  0.518027
  S     0.342905  6.626504  0.300883
  S    -0.713088  3.730969  4.352579
  S    -0.559196  7.474209  4.163829
