16  
    
  C    -5.493540  1.147035  1.305346
  C    -5.251922  5.216957  1.396533
  C    -6.637260  0.562538  0.606532
  C    -6.363028  4.462618  0.708744
  N    -4.451260  1.430027  0.543467
  N    -4.270508  5.555948  0.592700
  N    -6.519267  0.459701 -0.697829
  N    -6.154178  4.210982 -0.569554
  N    -7.337121  0.668636  3.065863
  N    -6.920253  4.455348  3.259984
  S    -7.952810  0.011876  1.674874
  S    -7.512141  3.770837  1.838099
  S    -4.961601  1.005286 -1.002808
  S    -4.663486  4.858253 -0.888987
  S    -5.697729  1.108170  3.049455
  S    -5.444427  5.238277  3.154122
