16  
    
  C    -1.706658  2.315183  1.936861
  C    -1.833197  6.461457  2.111356
  C    -2.959396  1.953797  1.302348
  C    -2.973102  5.830200  1.406968
  N    -0.706108  2.429139  1.062356
  N    -0.753476  6.539896  1.344976
  N    -2.951692  2.055328 -0.030861
  N    -2.664125  5.403608  0.211862
  N    -3.457473  2.368338  3.793434
  N    -3.557709  6.102788  4.000518
  S    -4.312270  1.815405  2.481872
  S    -4.248968  5.533018  2.610577
  S    -1.343738  2.231504 -0.443183
  S    -1.046146  5.917008 -0.185234
  S    -1.817189  2.431928  3.637299
  S    -2.128826  6.949142  3.759871
