16  
    
  C    -2.649344  2.577032  2.132257
  C    -2.474087  6.165031  2.097272
  C    -3.856193  2.116439  1.511457
  C    -3.626382  5.547100  1.432302
  N    -1.675237  2.824577  1.272091
  N    -1.404691  6.453922  1.313493
  N    -3.729724  1.720229  0.222790
  N    -3.423408  5.562052  0.081149
  N    -4.334754  2.466454  4.025761
  N    -4.463286  6.127786  3.711949
  S    -5.107387  1.858496  2.706341
  S    -5.064328  5.343559  2.369572
  S    -2.174101  2.198558 -0.216399
  S    -1.860445  6.114372 -0.214149
  S    -2.753910  2.856682  3.845781
  S    -2.898705  6.662251  3.689080
