16  
    
  C    -3.325536  1.939828  2.021224
  C    -3.111248  5.543089  2.051351
  C    -4.558179  1.497217  1.449098
  C    -4.224654  4.836886  1.455888
  N    -2.351639  2.244749  1.170565
  N    -2.040337  5.694335  1.259396
  N    -4.538842  1.361598  0.118859
  N    -4.045562  4.545189  0.145964
  N    -4.899812  1.452090  3.939903
  N    -4.966760  5.237216  3.892263
  S    -5.774986  1.062220  2.608803
  S    -5.530646  4.487544  2.554919
  S    -3.031873  1.764762 -0.295286
  S    -2.528098  5.213729 -0.239613
  S    -3.317756  1.861879  3.696915
  S    -3.411808  5.797635  3.804481
