16  
    
  C    -1.582908  2.870739  2.027883
  C    -1.138390  6.830356  2.211486
  C    -2.595562  2.109305  1.337935
  C    -2.428792  6.519278  1.683817
  N    -0.543896  3.106280  1.284114
  N    -0.176857  6.840160  1.339170
  N    -2.379267  1.904933  0.050051
  N    -2.398121  6.195414  0.404049
  N    -3.307539  2.385855  3.830865
  N    -2.790408  7.006648  4.152001
  S    -3.869393  1.640161  2.441319
  S    -3.704628  6.363186  2.869021
  S    -0.861416  2.540171 -0.254984
  S    -0.868326  6.593346 -0.117411
  S    -1.884281  3.254382  3.699315
  S    -1.117426  7.129958  3.884064
