16  
    
  C    -3.463215  1.820228  1.665352
  C    -3.625040  5.611394  1.728030
  C    -4.577340  1.076315  1.100547
  C    -4.790968  5.176045  1.054467
  N    -2.380737  1.915198  0.910099
  N    -2.582864  5.963639  0.967903
  N    -4.422906  0.811477 -0.217474
  N    -4.668820  5.174060 -0.272295
  N    -5.147825  1.502854  3.524135
  N    -5.445422  5.109393  3.565411
  S    -5.819963  0.799619  2.193156
  S    -6.226119  4.907363  2.114504
  S    -2.881558  1.288677 -0.562489
  S    -3.137619  5.590048 -0.628953
  S    -3.628890  2.093031  3.373427
  S    -3.905753  5.641283  3.433971
