16  
    
  C    -3.464241  1.758398  1.706322
  C    -3.638450  5.671062  1.748758
  C    -4.558362  1.054937  1.082103
  C    -4.820490  5.196911  1.035486
  N    -2.405933  1.972199  0.932920
  N    -2.622824  5.947368  0.928671
  N    -4.401853  0.738474 -0.183215
  N    -4.695257  5.235448 -0.290906
  N    -5.237454  1.516988  3.618980
  N    -5.468593  5.066731  3.588420
  S    -5.858445  0.782626  2.228258
  S    -6.165911  4.940683  2.121599
  S    -2.875390  1.323674 -0.603137
  S    -3.096963  5.632401 -0.581481
  S    -3.660566  2.115255  3.455155
  S    -3.878579  5.666224  3.454020
