16  
    
  C    -3.415101  1.780812  1.659809
  C    -3.641176  5.564770  1.745253
  C    -4.558381  1.208198  1.052822
  C    -4.893483  5.168490  1.054731
  N    -2.405114  1.878453  0.822290
  N    -2.627317  5.890174  0.950559
  N    -4.417005  0.868524 -0.200192
  N    -4.698798  5.036452 -0.236136
  N    -5.108464  1.474783  3.492192
  N    -5.450970  5.161313  3.523949
  S    -5.834324  0.803414  2.178644
  S    -6.252800  4.867000  2.066174
  S    -2.861775  1.262634 -0.564518
  S    -3.172039  5.562473 -0.669980
  S    -3.589271  2.091122  3.292676
  S    -3.879344  5.628245  3.459295
