16  
    
  C    -1.463310  2.583873  2.280413
  C    -1.391781  6.691033  2.167260
  C    -2.565524  1.973711  1.569926
  C    -2.636100  6.147952  1.644831
  N    -0.481526  2.998253  1.463914
  N    -0.332378  6.744832  1.353024
  N    -2.285277  1.693263  0.293667
  N    -2.545015  5.820369  0.379624
  N    -3.410351  2.460941  3.921826
  N    -2.962971  6.251102  4.177065
  S    -3.925336  1.728655  2.541434
  S    -3.913082  6.133950  2.820475
  S    -0.807464  2.339322 -0.032366
  S    -1.008887  6.236133 -0.075322
  S    -1.859040  3.020962  3.918403
  S    -1.440145  6.840529  3.875756
