16  
    
  C     0.959563  4.058596  2.584373
  C     1.470775  7.819158  3.285149
  C    -0.224809  3.513130  1.849337
  C     0.161090  7.774160  2.635568
  N     2.058213  4.210150  1.846318
  N     2.515343  7.896265  2.475505
  N    -0.027271  3.280487  0.547245
  N     0.285125  7.733698  1.321865
  N    -0.993970  3.657097  4.283504
  N    -0.258861  7.892423  5.110739
  S    -1.630387  3.208014  2.897042
  S    -1.113500  7.735592  3.744635
  S     1.556452  3.785518  0.241444
  S     1.866478  7.797945  0.911499
  S     0.633996  4.067212  4.260145
  S     1.394979  8.031344  4.947167
