16  
    
  C    -5.513018  0.905701  1.372988
  C    -5.034423  4.895722  1.371190
  C    -6.693069  0.452527  0.756724
  C    -6.152206  4.191997  0.840307
  N    -4.543395  1.238331  0.524670
  N    -4.259007  5.372930  0.396833
  N    -6.508037  0.288920 -0.573604
  N    -6.141444  4.075389 -0.483239
  N    -7.198007  0.464051  3.267874
  N    -6.620065  4.359909  3.254948
  S    -8.023274  0.140215  1.778637
  S    -7.421595  3.873726  1.896005
  S    -5.025762  0.841816 -0.988812
  S    -4.846857  4.919588 -1.088914
  S    -5.697766  1.208338  3.090147
  S    -5.275641  5.319772  2.999529
