16  
    
  C     0.905713  4.059418  2.547065
  C     1.480053  8.471442  3.185939
  C    -0.269321  3.461843  1.828709
  C     0.230193  8.186370  2.519455
  N     1.883122  4.407720  1.753687
  N     2.495084  8.483444  2.349965
  N    -0.122655  3.225929  0.514265
  N     0.345621  8.178089  1.202142
  N    -0.906495  3.733766  4.391277
  N    -0.176744  8.138607  5.056607
  S    -1.556984  3.141174  2.940172
  S    -1.051729  7.991992  3.664048
  S     1.476844  3.741183  0.224654
  S     1.950642  8.428670  0.761989
  S     0.670163  4.331653  4.249111
  S     1.423631  8.601488  4.877788
