16  
    
  C     3.154852  4.922240  3.523385
  C     3.483304  8.947263  3.655751
  C     1.892621  4.592118  2.923869
  C     2.092027  8.783944  3.240290
  N     4.152325  5.120041  2.681734
  N     4.357868  8.570312  2.742772
  N     1.948223  4.427303  1.625246
  N     1.994592  8.313118  2.011332
  N     1.414476  4.998393  5.403799
  N     1.756350  9.367214  5.729444
  S     0.593147  4.698226  4.018331
  S     0.829633  9.059482  4.315171
  S     3.504887  4.699957  1.181176
  S     3.420032  8.225116  1.406468
  S     3.053479  5.387450  5.164264
  S     3.430544  9.185785  5.433888
