16  
    
  C     2.964089  5.142019  3.575424
  C     3.041877  8.842318  3.465057
  C     1.740064  4.922788  2.855913
  C     1.886407  8.260161  2.774399
  N     3.974471  5.552566  2.801255
  N     4.018165  9.150732  2.595491
  N     1.894422  4.833864  1.521500
  N     2.033780  7.982250  1.473185
  N     1.089403  4.864250  5.376422
  N     1.031002  8.452082  5.129475
  S     0.337250  4.612030  3.904863
  S     0.403722  7.995724  3.646530
  S     3.507708  5.262574  1.246547
  S     3.475891  8.653964  1.087161
  S     2.675077  5.352452  5.269833
  S     2.620047  8.832417  5.229681
