16  
    
  C     3.268084  4.924403  3.487155
  C     3.483427  8.949675  3.835826
  C     2.015973  4.783541  2.801196
  C     2.282217  8.782657  3.050966
  N     4.288340  5.015444  2.608219
  N     4.533043  9.089318  3.009972
  N     2.085721  4.467369  1.502712
  N     2.327670  8.759797  1.728311
  N     1.339444  5.162166  5.300890
  N     1.459096  9.274489  5.480659
  S     0.618096  4.739489  3.854791
  S     0.854950  8.843510  3.986945
  S     3.667812  4.783908  1.109938
  S     4.008665  8.845465  1.411915
  S     2.960977  5.217093  5.202243
  S     3.136719  9.219527  5.532612
