16  
    
  C    -1.238205  3.304834  2.145298
  C    -1.087727  7.031331  2.621996
  C    -2.445974  2.775798  1.641522
  C    -2.364743  6.779504  1.963651
  N    -0.359220  3.665939  1.210360
  N    -0.079441  7.008046  1.767394
  N    -2.431908  2.574127  0.313962
  N    -2.330510  6.766873  0.629536
  N    -2.683730  2.925462  4.187632
  N    -2.794541  6.731339  4.522904
  S    -3.635014  2.555419  2.907461
  S    -3.695178  6.562054  3.091599
  S    -0.935777  3.066100 -0.219604
  S    -0.688075  6.926027  0.179394
  S    -1.112349  3.334011  3.898377
  S    -1.203840  7.108947  4.350739
