16  
    
  C     0.697459  4.012404  2.924496
  C     0.682996  7.569117  2.688842
  C    -0.456918  3.348949  2.406749
  C    -0.472692  6.875918  2.194075
  N     1.788942  4.045231  2.142199
  N     1.635408  7.825324  1.790060
  N    -0.399196  3.282511  1.062565
  N    -0.424764  6.491513  0.920945
  N    -1.076342  3.811815  4.821068
  N    -0.992476  7.402951  4.721323
  S    -1.840468  3.165508  3.442117
  S    -1.760704  6.686780  3.465123
  S     1.196213  3.379663  0.661390
  S     0.977435  7.100844  0.367281
  S     0.469217  4.356447  4.617375
  S     0.548430  7.900788  4.504460
