16  
    
  C     0.959201  3.987977  2.629886
  C     1.457077  7.886922  3.233736
  C    -0.158966  3.465155  1.862801
  C     0.136190  7.635463  2.556933
  N     1.970239  4.305984  1.817302
  N     2.488439  7.906817  2.371938
  N     0.166407  3.228437  0.581986
  N     0.205502  7.589262  1.214112
  N    -0.963219  3.707379  4.297660
  N    -0.342542  7.947729  5.136827
  S    -1.588196  3.246084  2.781797
  S    -1.227745  7.711096  3.708867
  S     1.653013  3.816822  0.301862
  S     1.840400  7.757946  0.890019
  S     0.612070  4.225276  4.291816
  S     1.324941  8.072820  4.975175
