16  
    
  C    -5.633090  0.835350  1.580590
  C    -5.792090  4.641772  1.304860
  C    -6.833411  0.490216  0.847529
  C    -7.016386  4.260877  0.686765
  N    -4.591998  0.951671  0.807500
  N    -4.821870  4.928432  0.482165
  N    -6.708780  0.264327 -0.456633
  N    -6.936687  4.083625 -0.598429
  N    -7.512708  0.484110  3.367590
  N    -7.498451  4.489545  3.206376
  S    -8.219249  0.264971  1.897436
  S    -8.298374  4.009320  1.826456
  S    -5.081810  0.573886 -0.776042
  S    -5.369177  4.536606 -1.031750
  S    -5.946777  1.085195  3.241563
  S    -5.878048  4.837431  3.007758
