16  
    
  C    -0.769368  3.166668  2.661703
  C    -1.229687  6.522835  2.581842
  C    -1.930931  2.560656  2.034392
  C    -2.405165  5.976920  1.865670
  N     0.304258  3.125414  1.865598
  N    -0.278911  6.977354  1.714935
  N    -1.806644  2.244557  0.722587
  N    -2.242624  5.846734  0.538283
  N    -2.513827  3.027517  4.465507
  N    -3.124092  6.007745  4.320012
  S    -3.306906  2.664058  3.107282
  S    -3.795925  5.558772  2.866787
  S    -0.238518  2.667008  0.344751
  S    -0.776989  6.453879  0.217789
  S    -0.907551  3.284876  4.382432
  S    -1.531776  6.578245  4.296596
