16  
    
  C    -1.870593  2.549323  2.160701
  C    -1.882598  6.291389  2.230340
  C    -3.014935  2.022420  1.520639
  C    -3.000714  5.618914  1.700073
  N    -0.840184  2.610692  1.342501
  N    -0.926690  6.626629  1.396771
  N    -2.949480  1.709352  0.233949
  N    -2.870058  5.306017  0.439702
  N    -3.510256  2.159483  4.074035
  N    -3.577328  6.174589  4.167582
  S    -4.332240  1.840286  2.683552
  S    -4.218163  5.292578  2.903396
  S    -1.365919  2.169405 -0.165693
  S    -1.392909  5.924044 -0.033503
  S    -1.901046  2.575303  3.884181
  S    -2.073209  6.794109  3.837351
