16  
    
  C     3.120104  5.077583  3.463539
  C     3.493540  8.914637  3.744880
  C     1.889508  4.779671  2.800033
  C     2.180768  8.871849  3.109848
  N     4.202343  5.055645  2.686295
  N     4.512361  8.728726  2.942519
  N     2.037150  4.653577  1.476645
  N     2.255734  8.588643  1.801208
  N     1.411227  5.152544  5.301787
  N     1.691809  9.115453  5.542035
  S     0.548188  4.737199  3.937059
  S     0.788213  9.036356  4.169150
  S     3.668828  4.652313  1.227491
  S     3.916106  8.628191  1.404978
  S     3.070515  5.232031  5.187997
  S     3.303055  9.269805  5.423739
