16  
    
  C    -2.660075  2.625571  2.178017
  C    -2.592638  6.252016  2.074013
  C    -3.800474  1.888737  1.643037
  C    -3.684509  5.696805  1.294639
  N    -1.658838  2.795736  1.305521
  N    -1.563128  6.644726  1.309924
  N    -3.673790  1.666812  0.313189
  N    -3.449336  5.586497 -0.053905
  N    -4.393458  2.385483  4.138594
  N    -4.529520  6.078583  3.726683
  S    -5.167905  1.782855  2.751483
  S    -5.090368  5.358612  2.320756
  S    -2.223114  2.315724 -0.150268
  S    -1.907565  6.141399 -0.272772
  S    -2.799202  2.849382  3.860390
  S    -2.927708  6.586567  3.698375
