16  
    
  C    -3.213954  1.837098  1.941089
  C    -3.199048  5.700461  2.104757
  C    -4.382956  1.574550  1.168092
  C    -4.335910  5.091927  1.509147
  N    -2.105164  1.910235  1.203065
  N    -2.242910  6.051550  1.223892
  N    -4.134138  1.330268 -0.139075
  N    -4.286962  5.022305  0.179801
  N    -5.131434  1.719960  3.650796
  N    -4.796153  5.177205  4.030657
  S    -5.758136  1.195460  2.226641
  S    -5.634615  4.749285  2.618478
  S    -2.468382  1.605542 -0.361465
  S    -2.728536  5.524859 -0.266341
  S    -3.517757  1.998971  3.658195
  S    -3.273787  5.815016  3.844819
