16  
    
  C    -4.159892  1.639951  1.854962
  C    -3.910118  5.212358  1.909949
  C    -5.341131  0.917391  1.441369
  C    -5.095512  4.516633  1.373680
  N    -3.174521  1.715241  0.931976
  N    -2.962052  5.308435  0.972741
  N    -5.341014  0.553298  0.142491
  N    -4.973617  4.139947  0.094762
  N    -5.924751  1.788965  3.774953
  N    -5.817914  5.335158  3.775758
  S    -6.651007  0.954061  2.546598
  S    -6.449896  4.642239  2.393734
  S    -3.805176  1.069166 -0.449719
  S    -3.505937  4.616009 -0.424749
  S    -4.272821  1.947783  3.573377
  S    -4.181026  5.670522  3.548112
