16  
    
  C    -1.828327  2.533931  2.507316
  C    -1.673615  5.807910  2.427491
  C    -3.091004  2.225318  1.791119
  C    -2.903185  5.544230  1.622610
  N    -0.800471  2.584752  1.670149
  N    -0.596805  6.094230  1.655113
  N    -3.000934  2.351907  0.474785
  N    -2.718601  5.524628  0.310638
  N    -3.647115  2.303897  4.309603
  N    -3.616161  5.700847  4.055143
  S    -4.445681  1.985389  2.890495
  S    -4.352009  5.307564  2.548025
  S    -1.398989  2.379551  0.134083
  S    -1.128507  5.912711  0.123942
  S    -1.990289  2.515304  4.180547
  S    -1.965272  5.964923  4.116739
