16  
    
  C    -1.503025  2.728487  2.214000
  C    -1.331171  6.742952  2.194862
  C    -2.493345  1.931606  1.520132
  C    -2.616722  6.264563  1.649617
  N    -0.500345  3.013952  1.410660
  N    -0.295922  6.725563  1.364004
  N    -2.265770  1.633470  0.244121
  N    -2.540406  5.863127  0.376869
  N    -3.404367  2.474418  3.909309
  N    -2.917095  6.331906  4.108254
  S    -3.927967  1.695708  2.505495
  S    -3.897392  6.167037  2.806189
  S    -0.820502  2.364195 -0.063079
  S    -0.998841  6.281379 -0.096908
  S    -1.827386  3.016364  3.911537
  S    -1.363606  6.927107  3.878473
