16  
    
  C     0.058865  3.305658  2.499396
  C    -0.012827  7.164610  2.745643
  C    -1.144159  2.913371  1.775054
  C    -1.247307  6.714668  2.000596
  N     1.143018  3.578617  1.752779
  N     1.002384  7.453080  1.960279
  N    -0.946588  2.739824  0.466200
  N    -1.105344  6.605553  0.703260
  N    -1.773260  2.973196  4.266736
  N    -1.717493  6.665778  4.497896
  S    -2.400997  2.303008  2.878009
  S    -2.576801  6.460938  3.057996
  S     0.593075  3.289708  0.179857
  S     0.434364  7.158098  0.391715
  S    -0.196474  3.505301  4.153738
  S    -0.126097  7.187558  4.420177
