16  
    
  C     1.055671  4.217426  2.814691
  C     1.589375  8.685466  2.971567
  C    -0.133401  3.788014  2.035952
  C     0.391968  8.164678  2.370886
  N     2.126432  4.623522  2.095408
  N     2.566328  8.925473  2.107247
  N     0.134025  3.607486  0.747535
  N     0.555608  7.867593  1.082427
  N    -0.863112  3.860571  4.446798
  N    -0.107464  8.462928  4.885134
  S    -1.457086  3.312142  2.990923
  S    -0.902113  8.057167  3.506311
  S     1.698935  4.190577  0.500485
  S     2.118562  8.408399  0.619264
  S     0.658453  4.354054  4.475446
  S     1.456186  8.862566  4.685959
