16  
    
  C     2.073094  4.952494  3.221139
  C     2.101963  8.606680  3.290053
  C     0.887843  4.612253  2.437600
  C     0.891813  8.258217  2.587832
  N     3.133040  5.248071  2.473667
  N     3.163241  8.787698  2.491898
  N     1.064260  4.467960  1.129193
  N     0.982880  8.180602  1.238295
  N    -0.002323  4.630147  4.884850
  N     0.360343  8.142864  5.173822
  S    -0.546863  4.152678  3.343404
  S    -0.421416  7.814626  3.693050
  S     2.656542  4.915350  0.890839
  S     2.581118  8.612547  0.914626
  S     1.592614  5.268362  4.806041
  S     1.936894  8.678776  5.018151
