16  
    
  C    -1.743979  2.405671  1.976794
  C    -1.664525  6.245473  2.161317
  C    -2.941128  1.978989  1.290464
  C    -2.924710  5.860415  1.460604
  N    -0.660736  2.498378  1.192609
  N    -0.644971  6.250611  1.306006
  N    -2.786105  1.826588 -0.030210
  N    -2.778851  5.566167  0.130469
  N    -3.583660  2.020411  3.740037
  N    -3.600383  6.149247  3.902332
  S    -4.385944  1.954021  2.317333
  S    -4.363084  5.619622  2.475026
  S    -1.212554  2.131124 -0.368530
  S    -1.225271  5.969570 -0.210906
  S    -1.962694  2.364734  3.675821
  S    -1.988382  6.591344  3.846673
