16  
    
  C     2.608738  4.943979  3.569956
  C     2.284004  8.662282  3.401249
  C     1.407945  4.319416  3.026936
  C     1.212255  7.875179  2.817053
  N     3.504417  5.270458  2.639812
  N     3.267948  9.046172  2.570916
  N     1.577098  3.908984  1.768942
  N     1.459751  7.657374  1.482264
  N     0.880608  4.672896  5.522908
  N     0.540797  8.487992  5.316953
  S     0.029023  4.247961  4.065417
  S    -0.095483  7.563275  3.996545
  S     2.893231  4.682239  1.220855
  S     2.956926  8.308066  1.168138
  S     2.465358  5.286320  5.302640
  S     2.069115  9.156053  5.051474
