16  
    
  C    -5.804995  0.895760  1.583803
  C    -5.942739  4.699655  1.463216
  C    -6.957986  0.386445  0.889074
  C    -7.219304  4.332086  0.804040
  N    -4.756729  1.126705  0.817527
  N    -4.902138  4.833630  0.649129
  N    -6.793074  0.221061 -0.404582
  N    -7.036344  4.117075 -0.476024
  N    -7.625851  0.706572  3.326756
  N    -7.792068  4.375679  3.322836
  S    -8.282091  0.037871  1.958681
  S    -8.516529  3.988193  1.886249
  S    -5.188211  0.660308 -0.747004
  S    -5.428153  4.424209 -0.886850
  S    -5.947936  1.025164  3.339636
  S    -6.183882  4.701646  3.164583
