16  
    
  C    -0.835637  3.185773  2.385299
  C    -0.836696  6.459521  2.452898
  C    -2.060417  2.626681  1.870810
  C    -2.020112  6.046634  1.757515
  N     0.227164  3.206071  1.555358
  N     0.264381  6.562460  1.723450
  N    -1.939421  2.448680  0.542029
  N    -1.774959  5.765965  0.462391
  N    -2.417972  2.801362  4.334740
  N    -2.700093  6.384889  4.215566
  S    -3.343787  2.612688  3.018928
  S    -3.426219  5.861402  2.824717
  S    -0.424732  2.890275  0.071916
  S    -0.120510  6.204560  0.160476
  S    -0.861663  3.275739  4.163323
  S    -1.061740  6.627323  4.133828
