16  
    
  C    -3.430020  1.547425  2.116599
  C    -3.283714  5.443708  2.050112
  C    -4.665985  1.173035  1.489319
  C    -4.491381  5.046649  1.404483
  N    -2.343933  1.533699  1.341034
  N    -2.218657  5.449263  1.256722
  N    -4.532382  0.943795  0.199580
  N    -4.368587  4.822087  0.057138
  N    -5.265073  1.448890  3.877020
  N    -4.965894  5.336483  3.957105
  S    -6.044502  1.174339  2.454472
  S    -5.802264  4.958316  2.602891
  S    -2.924175  1.103465 -0.156210
  S    -2.780381  5.063956 -0.309211
  S    -3.662481  1.823920  3.807083
  S    -3.307268  5.684756  3.832478
