16  
    
  C    -3.638925  1.838681  1.866602
  C    -3.584778  5.576604  1.810239
  C    -4.688323  1.025847  1.249909
  C    -4.823872  5.269729  1.155115
  N    -2.711457  2.215770  0.967826
  N    -2.574213  5.856795  0.978923
  N    -4.357747  0.642959  0.004916
  N    -4.768623  5.258040 -0.164262
  N    -5.379141  1.496476  3.664114
  N    -5.348791  5.312735  3.733181
  S    -5.925464  0.623540  2.312754
  S    -6.120019  4.962482  2.271629
  S    -2.994664  1.474480 -0.413618
  S    -3.201538  5.527112 -0.594330
  S    -3.856450  2.235834  3.520782
  S    -3.791205  5.717811  3.503783
