16  
    
  C    -5.043274  1.149497  1.760070
  C    -4.870287  4.750873  1.655144
  C    -6.106953  0.439594  1.112084
  C    -5.979883  4.050745  1.020104
  N    -3.941643  1.239670  0.986586
  N    -3.825100  5.020195  0.876193
  N    -5.889344  0.233530 -0.191994
  N    -5.731169  3.910844 -0.275786
  N    -6.822377  0.938972  3.527826
  N    -6.743115  4.630146  3.400682
  S    -7.430453  0.129895  2.197465
  S    -7.404841  3.911615  2.060960
  S    -4.402910  0.785372 -0.498578
  S    -4.277579  4.636596 -0.667983
  S    -5.241610  1.514624  3.441552
  S    -5.210115  5.218820  3.268793
