16  
    
  C    -2.894239  2.251045  1.859949
  C    -2.809714  5.987041  2.013144
  C    -4.094796  1.775197  1.115318
  C    -4.044805  5.469761  1.442308
  N    -1.906778  2.693692  1.090192
  N    -1.772528  6.031296  1.172100
  N    -3.852975  1.665101 -0.174705
  N    -4.006753  5.234929  0.175599
  N    -4.767766  1.793932  3.586864
  N    -4.518792  5.798194  3.909103
  S    -5.452094  1.440291  2.136364
  S    -5.346807  5.188403  2.589684
  S    -2.357640  2.260072 -0.501030
  S    -2.489674  5.599421 -0.289881
  S    -3.197902  2.331159  3.650002
  S    -2.940064  6.157142  3.715435
