16  
    
  C    -6.003952  0.868223  1.320524
  C    -6.049103  4.308329  1.552927
  C    -7.235406  0.619512  0.649101
  C    -7.193749  3.874778  0.897052
  N    -4.933028  1.013121  0.529682
  N    -5.067169  4.781267  0.746929
  N    -7.064186  0.562573 -0.681732
  N    -7.155591  3.884702 -0.470945
  N    -7.807406  0.272559  3.148251
  N    -7.656865  3.889714  3.478258
  S    -8.602869  0.264776  1.755597
  S    -8.380323  3.331649  2.070558
  S    -5.458935  0.800848 -1.022751
  S    -5.643137  4.491873 -0.784461
  S    -6.195308  0.643694  3.098401
  S    -6.044316  4.188893  3.346878
