16  
    
  C    -4.377774  1.495373  1.935394
  C    -4.645477  4.936536  1.684124
  C    -5.618556  1.003607  1.388132
  C    -5.771305  4.453864  0.994751
  N    -3.450778  1.793265  1.067935
  N    -3.596408  5.295384  0.951455
  N    -5.622273  0.784295  0.087960
  N    -5.585746  4.311354 -0.319667
  N    -5.882776  1.007032  3.879145
  N    -6.445989  4.674006  3.479894
  S    -6.783503  0.587861  2.544862
  S    -7.027067  3.882865  2.088554
  S    -4.060542  1.333539 -0.391048
  S    -4.104138  4.959252 -0.560450
  S    -4.438616  1.678984  3.652496
  S    -4.833371  5.074034  3.371924
