16  
    
  C     0.502685  3.999721  2.916602
  C     0.711318  7.488739  2.849231
  C    -0.689796  3.366459  2.413060
  C    -0.493559  7.122276  2.063331
  N     1.562396  3.891722  2.093247
  N     1.845292  7.652949  2.112494
  N    -0.608921  2.996384  1.124793
  N    -0.240527  6.935541  0.762075
  N    -1.169029  3.842662  4.878590
  N    -1.312440  7.173001  4.546175
  S    -1.943240  3.325408  3.574027
  S    -1.899251  6.875656  3.058948
  S     0.905427  3.349748  0.649399
  S     1.319410  7.203034  0.556471
  S     0.484105  4.180693  4.690158
  S     0.258351  7.753041  4.562167
