16  
    
  C    -0.542754  3.204055  2.861806
  C    -1.216190  6.721748  2.695414
  C    -1.782404  2.832643  2.264194
  C    -2.299637  6.151435  1.860146
  N     0.534451  3.224386  2.050859
  N    -0.118923  7.006425  1.983132
  N    -1.668545  2.584925  0.964851
  N    -2.025241  6.158938  0.559092
  N    -2.387608  3.246233  4.704912
  N    -3.211868  6.140162  4.303654
  S    -3.122024  2.734025  3.299205
  S    -3.733537  5.809180  2.786848
  S    -0.076442  2.794992  0.566366
  S    -0.390785  6.549023  0.410718
  S    -0.769885  3.696299  4.558123
  S    -1.675224  6.710885  4.408266
