16  
    
  C     0.677293  3.519235  2.701281
  C     0.664584  7.715608  2.719358
  C    -0.696788  3.393954  2.180679
  C    -0.534522  6.980660  2.131588
  N     1.648673  3.914222  1.840180
  N     1.577167  8.025686  1.810109
  N    -0.666927  3.358912  0.853950
  N    -0.485843  6.844138  0.815502
  N    -0.957893  3.263701  4.723159
  N    -1.048959  7.328361  4.646118
  S    -1.964739  3.099597  3.351420
  S    -1.791566  6.627001  3.281422
  S     0.903336  3.679777  0.322326
  S     0.933296  7.456653  0.335613
  S     0.626215  3.498490  4.406163
  S     0.538850  7.862431  4.426388
