16  
    
  C     3.468679  5.427486  3.577540
  C     3.480792  8.975301  3.495095
  C     2.274633  4.918705  2.949365
  C     2.364861  8.389092  2.790579
  N     4.544135  5.447837  2.788024
  N     4.470105  9.490661  2.709154
  N     2.338896  4.883968  1.639104
  N     2.590328  8.438681  1.456452
  N     1.787020  4.916432  5.394128
  N     1.826889  8.695930  5.384452
  S     0.933172  4.694829  4.011246
  S     1.068427  8.100591  4.051357
  S     3.869244  5.296905  1.248802
  S     4.078264  9.102428  1.170244
  S     3.408725  5.394999  5.300246
  S     3.302676  9.365532  5.208574
