16  
    
  C     0.107585  3.331105  2.442207
  C    -0.037227  7.187425  2.695009
  C    -1.137077  2.977093  1.760128
  C    -1.185965  6.698531  2.039420
  N     1.145418  3.529277  1.678156
  N     1.038550  7.465579  1.945905
  N    -0.925243  2.822573  0.468806
  N    -1.079190  6.709909  0.680017
  N    -1.681354  2.959297  4.242519
  N    -1.741726  6.773422  4.600203
  S    -2.378225  2.355471  2.838758
  S    -2.558725  6.473212  3.139297
  S     0.605386  3.336807  0.117978
  S     0.515732  7.105585  0.437431
  S    -0.154673  3.495311  4.164951
  S    -0.153555  7.269575  4.454088
