16  
    
  C     3.105632  5.037910  3.465223
  C     3.349133  8.869925  3.710286
  C     1.893929  4.493994  2.918434
  C     2.030264  8.683155  3.248644
  N     4.146988  5.075600  2.632626
  N     4.292379  8.575347  2.748366
  N     1.958700  4.404905  1.571024
  N     1.873712  8.280297  1.987157
  N     1.456036  5.000031  5.428400
  N     1.806928  9.394182  5.702501
  S     0.567562  4.685220  4.077008
  S     0.819142  9.068552  4.404513
  S     3.531231  4.728391  1.172967
  S     3.439485  8.202862  1.386610
  S     3.021462  5.357333  5.132853
  S     3.409261  9.229040  5.422588
