16  
    
  C     1.887248  4.329287  3.084332
  C     1.983684  7.994469  3.129187
  C     0.650003  4.031576  2.453978
  C     0.797634  7.597606  2.429900
  N     2.919737  4.153893  2.247632
  N     2.985038  8.229147  2.298759
  N     0.681379  3.831922  1.112541
  N     0.889240  7.507421  1.121289
  N     0.220258  4.276723  5.117245
  N     0.155635  7.519297  4.959126
  S    -0.699215  3.991149  3.655429
  S    -0.523007  7.221639  3.465644
  S     2.262340  3.990181  0.768069
  S     2.441684  7.868774  0.725698
  S     1.875819  4.538698  4.829746
  S     1.776991  7.996594  4.880471
