16  
    
  C    -4.148160  1.258444  1.766326
  C    -4.156416  5.280398  1.932055
  C    -5.362433  1.274214  1.041065
  C    -5.448191  5.119234  1.317442
  N    -3.078324  1.260213  1.025387
  N    -3.102885  5.211355  1.119727
  N    -5.280066  1.128424 -0.266097
  N    -5.319333  5.006586  0.007110
  N    -5.995587  1.520276  3.474339
  N    -5.877741  5.051404  3.827706
  S    -6.808653  1.279924  1.985792
  S    -6.797683  4.915040  2.434476
  S    -3.608500  1.155715 -0.562100
  S    -3.692469  4.972410 -0.371729
  S    -4.320864  1.634145  3.448212
  S    -4.213168  5.282259  3.670529
