16  
    
  C    -2.657068  2.609739  2.187160
  C    -2.623581  6.298557  2.049152
  C    -3.758593  1.867310  1.656169
  C    -3.736387  5.740941  1.294741
  N    -1.669534  2.800682  1.311850
  N    -1.598217  6.649411  1.290514
  N    -3.681002  1.659637  0.325588
  N    -3.462789  5.557463 -0.051597
  N    -4.385404  2.365318  4.143525
  N    -4.540108  6.046477  3.717192
  S    -5.179175  1.763655  2.759206
  S    -5.070484  5.369167  2.308382
  S    -2.235776  2.334473 -0.132878
  S    -1.907912  6.155834 -0.284889
  S    -2.811626  2.853098  3.875366
  S    -2.943077  6.557327  3.704302
