16  
    
  C    -4.348342  1.463112  1.914958
  C    -4.565106  4.888929  1.691427
  C    -5.497868  0.807717  1.361712
  C    -5.632836  4.283492  0.963097
  N    -3.450545  1.775474  0.998592
  N    -3.565823  5.325520  0.924126
  N    -5.527705  0.807405  0.021848
  N    -5.543002  4.379191 -0.360688
  N    -5.965530  0.873128  4.016771
  N    -6.479648  4.425173  3.442116
  S    -6.823378  0.518345  2.613155
  S    -7.020924  3.809683  1.977299
  S    -4.133065  1.417604 -0.514234
  S    -4.000339  5.000726 -0.698698
  S    -4.456748  1.589133  3.678309
  S    -4.919602  4.929261  3.513874
