16  
    
  C    -5.509097  0.986792  1.357682
  C    -5.187107  5.045679  1.262510
  C    -6.686443  0.385367  0.804962
  C    -6.325550  4.282470  0.704598
  N    -4.428367  1.172729  0.570389
  N    -4.284881  5.368816  0.316402
  N    -6.604984  0.216781 -0.539794
  N    -6.312121  4.066005 -0.645281
  N    -7.277973  0.625743  3.233854
  N    -6.664380  4.371884  3.286487
  S    -8.001656  0.187246  1.867485
  S    -7.469790  3.883564  1.936165
  S    -5.078964  0.745828 -0.921941
  S    -4.887150  4.760199 -1.132208
  S    -5.706399  1.095043  3.105440
  S    -5.211569  5.165610  3.072264
