16  
    
  C    -5.734088  0.948044  1.541446
  C    -5.951302  4.768853  1.388996
  C    -6.917503  0.454668  0.890369
  C    -7.166139  4.257952  0.675603
  N    -4.657305  1.014380  0.790070
  N    -4.928052  4.878853  0.590962
  N    -6.705990  0.270488 -0.398833
  N    -7.002075  4.130133 -0.617442
  N    -7.533946  0.633186  3.341629
  N    -7.656355  4.507666  3.238015
  S    -8.273299  0.134890  1.909604
  S    -8.456459  3.982065  1.846504
  S    -5.141954  0.611170 -0.706521
  S    -5.400089  4.453880 -0.923142
  S    -5.958915  1.033778  3.276240
  S    -5.993682  4.741951  3.118033
