16  
    
  C     2.986682  5.148520  3.435698
  C     2.864039  8.747216  3.316130
  C     1.729985  4.772686  2.809098
  C     1.665582  8.222630  2.637392
  N     3.914711  5.622974  2.572136
  N     3.904073  9.123282  2.642752
  N     1.841018  4.639264  1.482994
  N     1.902025  8.202130  1.337679
  N     1.078424  5.098078  5.261189
  N     1.217321  8.310256  5.194094
  S     0.426208  4.344652  3.874215
  S     0.394969  7.766394  3.825314
  S     3.388886  5.208909  1.047711
  S     3.456880  8.922162  1.094736
  S     2.712477  5.372804  5.210536
  S     2.663623  9.030788  5.024041
