16  
    
  C    -0.691808  2.886521  2.594653
  C    -1.308359  6.544626  2.473929
  C    -1.918448  2.565068  1.945133
  C    -2.438314  5.997965  1.776061
  N     0.322839  3.078872  1.775682
  N    -0.249401  6.849084  1.738839
  N    -1.870730  2.439347  0.638474
  N    -2.168828  5.729063  0.488624
  N    -2.581426  2.911406  4.440987
  N    -2.955236  5.930608  4.325746
  S    -3.353728  2.455937  2.991755
  S    -3.717932  5.614631  2.914067
  S    -0.267045  2.675605  0.228276
  S    -0.672860  6.350104  0.241693
  S    -0.915714  3.291638  4.267782
  S    -1.421238  6.551276  4.221655
