16  
    
  C    -1.229446  3.474987  2.143628
  C    -1.078027  7.117480  2.638068
  C    -2.374696  2.714143  1.607108
  C    -2.350183  6.895648  1.970460
  N    -0.326147  3.635173  1.201009
  N    -0.048273  7.241916  1.813993
  N    -2.359668  2.561423  0.304629
  N    -2.322549  6.692684  0.674193
  N    -2.749384  2.917428  4.143984
  N    -2.751974  6.602671  4.455832
  S    -3.584720  2.358079  2.805623
  S    -3.650494  6.671081  3.070499
  S    -0.980560  3.219324 -0.251749
  S    -0.687580  6.883446  0.305395
  S    -1.196706  3.483497  3.834939
  S    -1.189876  6.989306  4.354690
