16  
    
  C    -1.177480  3.034334  2.388117
  C    -0.865941  6.929678  2.311035
  C    -2.439889  2.822298  1.698088
  C    -2.149738  6.630543  1.784944
  N    -0.166024  3.058754  1.514838
  N     0.085879  7.143481  1.406865
  N    -2.391164  2.620841  0.364641
  N    -2.129135  6.447762  0.477138
  N    -2.951282  3.199670  4.277841
  N    -2.334435  6.526388  4.263535
  S    -3.787607  2.940939  2.822529
  S    -3.403249  6.484882  2.943364
  S    -0.762424  2.687296  0.015964
  S    -0.504433  6.609943 -0.013577
  S    -1.270848  3.250523  4.082029
  S    -0.734229  6.931112  3.981970
