16  
    
  C     3.109227  5.077979  3.396540
  C     3.208081  8.868444  3.640239
  C     1.982747  4.574264  2.713105
  C     2.009096  8.548210  2.936141
  N     4.153825  5.390572  2.624026
  N     4.253389  9.098849  2.861544
  N     2.223343  4.289545  1.402765
  N     2.128458  8.610080  1.560559
  N     1.196308  4.985365  5.150323
  N     1.475462  8.949005  5.505476
  S     0.648675  4.166781  3.819151
  S     0.694530  8.558342  4.061095
  S     3.692432  4.995169  1.129961
  S     3.801124  8.882212  1.332855
  S     2.824746  5.348841  5.046914
  S     3.145474  9.286868  5.250660
