16  
    
  C    -4.401616  1.052352  1.832980
  C    -4.696833  4.624673  1.629712
  C    -5.654297  0.670678  1.229741
  C    -5.860817  4.371515  0.884458
  N    -3.456517  1.461962  1.034615
  N    -3.684091  5.047893  0.888672
  N    -5.615648  0.750870 -0.081092
  N    -5.751290  4.463134 -0.425575
  N    -6.161870  0.636467  3.635173
  N    -6.618067  4.170567  3.256301
  S    -6.967084  0.415172  2.205436
  S    -7.212549  3.824096  1.700252
  S    -4.088869  1.321397 -0.502630
  S    -4.205911  5.022230 -0.676171
  S    -4.536067  1.110886  3.522440
  S    -4.940665  4.472597  3.345287
