16  
    
  C    -1.568773  2.676710  2.398904
  C    -1.616765  6.184156  2.352483
  C    -2.714675  2.255304  1.689027
  C    -2.807727  5.712615  1.705697
  N    -0.502650  2.787105  1.639634
  N    -0.580535  6.417483  1.556944
  N    -2.525385  1.926281  0.419544
  N    -2.742682  5.739426  0.347361
  N    -3.527570  2.489801  4.103118
  N    -3.386051  6.140744  4.226272
  S    -4.187555  1.991085  2.652945
  S    -4.136163  5.480891  2.873157
  S    -0.926568  2.207348  0.114549
  S    -1.120391  6.056916  0.026398
  S    -1.914916  2.910341  4.061798
  S    -1.801545  6.528672  4.120070
