16  
    
  C    -0.706547  3.019080  2.410609
  C    -0.942536  6.361115  2.515271
  C    -1.948258  2.586928  1.858241
  C    -2.105540  5.862351  1.801699
  N     0.256496  3.285097  1.540289
  N     0.140285  6.488083  1.750536
  N    -1.916287  2.459361  0.562664
  N    -1.943965  5.833406  0.505428
  N    -2.414759  2.729792  4.343834
  N    -2.881318  6.375195  4.220639
  S    -3.261169  2.533871  2.978213
  S    -3.476409  5.691731  2.815914
  S    -0.370267  2.774971  0.070437
  S    -0.338076  6.227876  0.198540
  S    -0.857325  3.232961  4.203055
  S    -1.215899  6.634926  4.196302
