16  
    
  C    -0.754742  2.958873  2.542260
  C    -1.233165  6.474373  2.469184
  C    -2.001680  2.462626  1.928101
  C    -2.400144  5.969939  1.785295
  N     0.326984  3.007130  1.730872
  N    -0.208905  6.864824  1.695326
  N    -1.858508  2.507954  0.585232
  N    -2.182014  5.794160  0.467827
  N    -2.505619  2.863232  4.359112
  N    -2.958533  5.951074  4.389453
  S    -3.317756  2.434074  3.008790
  S    -3.693760  5.621548  2.952851
  S    -0.258347  2.695793  0.212857
  S    -0.558542  6.291633  0.172511
  S    -0.936301  3.281347  4.236183
  S    -1.429817  6.547330  4.226207
