16  
    
  C     0.026935  3.646571  2.688146
  C     0.349291  7.397461  2.673621
  C    -1.015918  2.930419  1.987755
  C    -0.927040  7.208494  1.988422
  N     1.117185  3.769886  1.960772
  N     1.380631  7.601459  1.851527
  N    -0.803174  2.742944  0.693691
  N    -0.880476  7.307975  0.644704
  N    -1.687984  3.183947  4.508239
  N    -1.470413  7.272725  4.526503
  S    -2.326833  2.552572  3.111768
  S    -2.313512  7.194535  3.096888
  S     0.707481  3.382499  0.406311
  S     0.669992  7.470212  0.314759
  S    -0.190366  3.899534  4.407633
  S     0.186103  7.501627  4.420395
