16  
    
  C    -3.738573  1.753922  1.767517
  C    -3.953945  5.465643  1.854635
  C    -5.003305  1.336672  1.202476
  C    -5.136751  5.114326  1.059937
  N    -2.680573  1.833712  0.967477
  N    -2.914188  5.746681  1.086414
  N    -4.973867  1.359409 -0.115907
  N    -4.917565  5.142138 -0.266696
  N    -5.483553  1.584515  3.702182
  N    -5.730763  4.585510  3.535112
  S    -6.336815  1.167112  2.334140
  S    -6.463470  4.641153  2.032270
  S    -3.372977  1.617159 -0.615770
  S    -3.345121  5.628646 -0.464119
  S    -3.856847  1.740106  3.559080
  S    -4.278027  5.341882  3.613718
