16  
    
  C    -0.727412  3.017948  2.618240
  C    -1.339781  6.623199  2.517844
  C    -1.970590  2.601223  1.990547
  C    -2.419321  5.956737  1.891985
  N     0.317788  3.072455  1.776107
  N    -0.291103  6.853849  1.769430
  N    -1.796269  2.297992  0.733316
  N    -2.243588  5.750321  0.626672
  N    -2.554376  2.978904  4.446135
  N    -3.000613  5.963259  4.291444
  S    -3.327578  2.560577  3.031694
  S    -3.772564  5.579422  2.814306
  S    -0.266035  2.685031  0.297416
  S    -0.761641  6.434049  0.246392
  S    -0.924490  3.281789  4.358023
  S    -1.440030  6.567764  4.234178
