16  
    
  C     1.934007  4.386841  3.371923
  C     1.662140  7.755916  3.017918
  C     0.674476  4.023010  2.731945
  C     0.367682  7.561265  2.351516
  N     2.995009  4.408942  2.560113
  N     2.690810  7.963135  2.222959
  N     0.723508  4.141941  1.414825
  N     0.490208  7.672085  1.027227
  N     0.148433  3.967642  5.273164
  N    -0.008426  7.425513  4.970735
  S    -0.537238  3.710215  3.770234
  S    -0.858192  7.187820  3.525754
  S     2.338083  4.497173  0.987033
  S     2.134748  7.822935  0.694502
  S     1.818252  4.296857  5.115952
  S     1.634281  7.647063  4.748827
