16  
    
  C    -3.418841  1.731686  1.783159
  C    -3.675131  5.672124  1.737753
  C    -4.563266  1.062769  1.125772
  C    -4.858504  5.259359  1.043930
  N    -2.474532  1.988803  0.889283
  N    -2.645584  5.928284  0.963078
  N    -4.358031  0.702233 -0.169240
  N    -4.708985  5.234490 -0.284518
  N    -5.284875  1.518114  3.651422
  N    -5.419478  5.069918  3.596985
  S    -5.891894  0.771136  2.260041
  S    -6.145520  4.949771  2.098011
  S    -2.867931  1.353356 -0.612186
  S    -3.092761  5.656049 -0.580548
  S    -3.691631  2.122850  3.478144
  S    -3.851866  5.683623  3.491582
