16  
    
  C    -1.568144  2.858643  2.020544
  C    -1.131400  6.849386  2.230308
  C    -2.639128  2.141049  1.331415
  C    -2.431732  6.502517  1.677728
  N    -0.534813  3.107209  1.273298
  N    -0.153912  6.861119  1.345322
  N    -2.362921  1.921271  0.065241
  N    -2.405031  6.196082  0.381931
  N    -3.299266  2.388955  3.817743
  N    -2.781753  7.016906  4.155142
  S    -3.865811  1.643766  2.440381
  S    -3.703619  6.379999  2.869595
  S    -0.871302  2.558772 -0.263320
  S    -0.863471  6.609808 -0.104303
  S    -1.890710  3.271319  3.694529
  S    -1.091354  7.132772  3.895304
