16  
    
  C     0.696781  3.863994  2.942636
  C     0.652877  7.623882  2.747902
  C    -0.539648  3.564471  2.266312
  C    -0.538832  6.896158  2.292703
  N     1.689523  3.980535  2.097322
  N     1.507804  7.769440  1.732336
  N    -0.417049  3.241918  0.963655
  N    -0.482568  6.481759  1.028271
  N    -1.059208  3.688693  4.791864
  N    -0.979704  7.369054  4.776372
  S    -1.768322  3.185919  3.447892
  S    -1.741226  6.655373  3.434926
  S     1.179331  3.512266  0.621994
  S     0.945303  7.095089  0.361420
  S     0.519464  4.259898  4.630966
  S     0.576876  7.999835  4.454383
