16  
    
  C    -3.821509  2.014697  1.932941
  C    -3.523289  5.418242  1.918975
  C    -4.655516  1.023688  1.306320
  C    -4.777066  4.899197  1.383659
  N    -2.787046  2.335900  1.161039
  N    -2.573384  5.533116  0.946809
  N    -4.410451  0.769319  0.014153
  N    -4.783487  4.663254  0.079206
  N    -5.445370  1.334472  3.662521
  N    -5.204407  5.382466  3.907835
  S    -5.992084  0.485853  2.330989
  S    -6.052896  4.956961  2.521521
  S    -3.042653  1.652338 -0.322740
  S    -3.195657  4.966903 -0.431335
  S    -4.190580  2.451522  3.568949
  S    -3.670428  5.789707  3.646105
