16  
    
  C     1.946243  4.119181  3.169474
  C     1.850936  7.922723  3.090637
  C     0.605642  3.947740  2.578443
  C     0.646419  7.476455  2.433618
  N     2.917721  4.374480  2.283091
  N     2.838425  8.269394  2.265765
  N     0.657799  3.894895  1.274065
  N     0.779575  7.402334  1.118813
  N     0.154939  4.273776  5.170886
  N     0.202544  7.449331  4.964080
  S    -0.768255  4.053035  3.717757
  S    -0.625154  7.093262  3.577459
  S     2.183924  4.073951  0.841967
  S     2.232002  8.057093  0.726831
  S     1.804044  4.228589  4.919677
  S     1.837375  7.838418  4.773398
