16  
    
  C    -3.825443  2.016780  1.920251
  C    -3.514972  5.409623  1.914652
  C    -4.654459  1.019031  1.301590
  C    -4.768021  4.912892  1.375762
  N    -2.778737  2.341140  1.175646
  N    -2.567779  5.547371  0.944160
  N    -4.421746  0.762872  0.010506
  N    -4.786245  4.682046  0.073221
  N    -5.434864  1.330738  3.652349
  N    -5.214004  5.390833  3.888776
  S    -5.983939  0.489100  2.329805
  S    -6.057401  4.960169  2.522519
  S    -3.050479  1.643585 -0.320034
  S    -3.202139  4.986192 -0.430988
  S    -4.184479  2.453452  3.568058
  S    -3.678926  5.785226  3.633338
