16  
    
  C     0.456817  3.617185  2.847497
  C     0.789788  7.689888  2.599646
  C    -0.642962  3.101392  2.055476
  C    -0.369018  7.174478  1.958087
  N     1.504119  3.958366  2.099068
  N     1.786315  8.030849  1.796295
  N    -0.385381  2.948968  0.766440
  N    -0.383935  7.237078  0.617908
  N    -1.362410  3.221097  4.542012
  N    -0.769659  6.762284  4.561995
  S    -1.951057  2.728725  3.042029
  S    -1.531918  6.517073  3.115553
  S     1.173662  3.618206  0.552755
  S     1.188641  7.837895  0.258647
  S     0.219201  3.724487  4.554639
  S     0.705634  7.526256  4.396286
