16  
    
  C    -0.687955  3.242488  2.732418
  C    -1.356532  6.579780  2.604529
  C    -1.884951  2.636239  2.162859
  C    -2.422615  6.089251  1.825663
  N     0.377872  3.263064  1.956934
  N    -0.252914  6.839702  1.923359
  N    -1.747009  2.375916  0.868362
  N    -2.175407  5.931058  0.510795
  N    -2.411561  3.087227  4.569492
  N    -3.178533  6.084995  4.296937
  S    -3.275729  2.799507  3.244635
  S    -3.814670  5.621143  2.824957
  S    -0.152247  2.657682  0.488737
  S    -0.674906  6.616566  0.368042
  S    -0.814397  3.458983  4.479614
  S    -1.587491  6.675865  4.292171
