16  
    
  C     3.263101  5.417200  3.507615
  C     3.656357  9.294107  3.480525
  C     2.111847  4.804560  2.874846
  C     2.494965  8.702492  2.892391
  N     4.308518  5.530194  2.672249
  N     4.589557  9.531076  2.513787
  N     2.179295  4.732871  1.540574
  N     2.557979  8.463222  1.590512
  N     1.617953  4.971968  5.410866
  N     1.978482  8.745195  5.296345
  S     0.795306  4.499038  4.015629
  S     1.248560  8.159295  3.932817
  S     3.741068  5.154763  1.134344
  S     3.988855  8.903017  1.099367
  S     3.216055  5.353804  5.268656
  S     3.460982  9.439064  5.206600
