16  
    
  C     0.123883  3.550618  2.309532
  C     0.154137  7.272116  2.916737
  C    -1.026239  3.005828  1.711035
  C    -1.003536  6.793036  2.242661
  N     1.212352  3.646893  1.514898
  N     1.156540  7.434928  2.098294
  N    -0.957929  2.946977  0.376402
  N    -0.915301  6.636525  0.955863
  N    -1.500450  2.840951  4.215220
  N    -1.736814  7.182889  4.602800
  S    -2.383299  2.805319  2.809302
  S    -2.349374  6.491990  3.192560
  S     0.588500  3.497539 -0.036672
  S     0.659901  7.007938  0.567436
  S     0.096050  3.406026  4.036317
  S    -0.108469  7.685035  4.557101
