16  
    
  C    -4.342987  1.589241  1.945761
  C    -4.618242  5.137142  1.681242
  C    -5.480594  0.968380  1.390534
  C    -5.795383  4.607116  1.102805
  N    -3.271774  1.779557  1.133444
  N    -3.612784  5.366044  0.811163
  N    -5.354108  0.783765  0.083433
  N    -5.751374  4.305197 -0.209968
  N    -6.123060  1.290311  3.884936
  N    -6.333404  4.663101  3.707197
  S    -6.824380  0.778777  2.511651
  S    -7.098920  4.383592  2.221086
  S    -3.845278  1.240424 -0.338318
  S    -4.242027  4.823340 -0.672352
  S    -4.571953  1.857849  3.674802
  S    -4.836565  5.380161  3.459739
