16  
    
  C     2.848276  5.243037  3.776883
  C     2.342059  8.556790  3.444112
  C     1.702528  4.466412  3.312641
  C     1.243480  7.928620  2.716593
  N     3.875219  5.335816  2.924543
  N     3.434792  8.779954  2.722254
  N     1.769939  4.188888  2.005783
  N     1.460399  7.816805  1.402867
  N     1.210689  4.983172  5.823172
  N     0.376658  8.467309  4.964047
  S     0.298962  4.641329  4.474621
  S    -0.138757  7.537845  3.744174
  S     3.270101  4.681378  1.456702
  S     3.007863  8.350321  1.147270
  S     2.679370  5.698681  5.472491
  S     1.910955  8.947957  5.050358
