16  
    
  C     2.027918  4.613272  3.279365
  C     1.622835  7.906658  3.063238
  C     0.825585  4.020891  2.685871
  C     0.420522  7.488697  2.345074
  N     3.041752  4.608396  2.431210
  N     2.678578  8.156617  2.266571
  N     0.888398  3.946096  1.348328
  N     0.481518  7.452647  0.994490
  N     0.291278  4.261638  5.217790
  N    -0.314874  7.636120  4.816965
  S    -0.467197  3.713783  3.844852
  S    -0.936505  7.054593  3.340232
  S     2.476501  4.351894  0.903109
  S     2.098144  7.804654  0.753083
  S     1.846575  4.929773  4.933891
  S     1.273679  8.103547  4.776645
