16  
    
  C    -2.692497  2.537642  2.347191
  C    -2.609505  5.839291  1.994577
  C    -3.809925  1.928153  1.730012
  C    -3.874211  5.406202  1.292611
  N    -1.753560  3.033852  1.553191
  N    -1.587521  6.179440  1.222412
  N    -3.668322  1.785134  0.420477
  N    -3.751481  5.527730  0.017051
  N    -4.365764  2.027546  4.178360
  N    -4.511327  5.474859  3.761394
  S    -4.988329  1.382052  2.814243
  S    -5.239781  4.996818  2.313691
  S    -2.266204  2.536003 -0.000883
  S    -2.176722  5.952683 -0.324358
  S    -2.844543  2.664911  4.101192
  S    -2.945427  5.994206  3.724593
