16  
    
  C    -6.068336  0.978467  1.462894
  C    -6.170686  4.466315  1.807891
  C    -7.200326  0.243712  0.901050
  C    -7.333210  4.095171  1.042670
  N    -5.134960  1.346800  0.558030
  N    -5.038377  4.688851  1.082557
  N    -7.211827  0.089481 -0.439864
  N    -7.102306  4.015374 -0.285966
  N    -7.468197  0.168763  3.490997
  N    -8.090388  4.253739  3.478712
  S    -8.305687 -0.324231  2.181503
  S    -8.715412  3.696539  2.028884
  S    -5.756789  0.789382 -0.939052
  S    -5.474907  4.392841 -0.487749
  S    -6.102013  0.987471  3.180134
  S    -6.413935  4.451941  3.573140
