16  
    
  C    -0.761097  3.148479  2.682818
  C    -1.218528  6.501338  2.576318
  C    -1.955181  2.575066  2.030579
  C    -2.384299  5.980671  1.843522
  N     0.309157  3.172125  1.872501
  N    -0.293810  6.989942  1.723716
  N    -1.801595  2.246071  0.744391
  N    -2.242192  5.878287  0.520793
  N    -2.522169  3.040465  4.509853
  N    -3.144548  6.025543  4.329845
  S    -3.304927  2.687622  3.119365
  S    -3.793725  5.559080  2.887019
  S    -0.224331  2.656187  0.361239
  S    -0.769120  6.462801  0.207189
  S    -0.889469  3.295466  4.380394
  S    -1.565446  6.580161  4.313013
