16  
    
  C     0.450834  3.689888  2.843126
  C     0.794728  7.671511  2.614759
  C    -0.629147  3.061729  2.073170
  C    -0.390911  7.155395  1.965104
  N     1.515011  3.951138  2.099665
  N     1.779358  8.034697  1.784261
  N    -0.337159  2.939324  0.773588
  N    -0.353337  7.245234  0.637386
  N    -1.361161  3.219415  4.550737
  N    -0.755296  6.773756  4.549470
  S    -1.958974  2.714973  3.029100
  S    -1.518605  6.511682  3.117668
  S     1.174334  3.626481  0.565867
  S     1.208653  7.841172  0.261018
  S     0.200081  3.725024  4.564253
  S     0.714898  7.516768  4.381625
