16  
    
  C    -3.402527  1.740459  1.598886
  C    -3.707387  5.569034  1.731383
  C    -4.625537  1.250970  1.042453
  C    -4.875307  5.137829  1.038988
  N    -2.331136  1.901844  0.818737
  N    -2.706935  5.790518  0.888650
  N    -4.415522  0.883957 -0.235086
  N    -4.756345  4.944360 -0.274948
  N    -5.106323  1.460158  3.538122
  N    -5.513304  5.185023  3.505507
  S    -5.853554  0.811243  2.164792
  S    -6.244711  4.842560  2.048656
  S    -2.846162  1.241317 -0.641807
  S    -3.215387  5.534200 -0.652959
  S    -3.560897  2.111227  3.293436
  S    -3.847085  5.618944  3.477366
