16  
    
  C    -3.798225  1.926811  1.946643
  C    -3.482931  5.364326  1.990864
  C    -4.691558  1.017826  1.343208
  C    -4.718618  4.856170  1.520414
  N    -2.721200  2.244706  1.219275
  N    -2.472383  5.412178  1.104457
  N    -4.370659  0.777665  0.078269
  N    -4.689560  4.513326  0.244135
  N    -5.613472  1.476144  3.649282
  N    -5.053126  5.293673  3.975231
  S    -6.036624  0.611952  2.294293
  S    -6.031453  4.924395  2.659878
  S    -2.969563  1.596282 -0.251534
  S    -3.113623  4.801075 -0.259790
  S    -4.145410  2.218163  3.655407
  S    -3.554918  5.735240  3.604378
