16  
    
  C     1.914255  5.181437  3.092766
  C     2.175242  8.581983  3.181122
  C     0.904926  4.346870  2.448940
  C     1.035892  8.024953  2.456982
  N     2.976916  5.416206  2.284531
  N     3.212352  8.855543  2.431098
  N     1.093155  4.169358  1.150777
  N     1.304374  7.853478  1.176864
  N     0.089820  4.687109  4.777788
  N     0.497071  8.140147  5.036549
  S    -0.579808  4.134246  3.365746
  S    -0.281119  7.731546  3.623725
  S     2.571652  4.743287  0.825693
  S     2.783013  8.525980  0.843143
  S     1.624250  5.185234  4.757045
  S     2.120874  8.567323  4.863741
