16  
    
  C    -4.154053  1.398168  1.956684
  C    -3.920890  5.203664  1.943604
  C    -5.399322  1.211788  1.307605
  C    -5.181530  4.819686  1.396319
  N    -3.118692  1.452985  1.117014
  N    -2.895893  5.066141  1.105815
  N    -5.377266  0.950706 -0.011452
  N    -5.093173  4.347012  0.141899
  N    -5.854045  1.374468  3.808767
  N    -5.680978  5.358848  3.841035
  S    -6.732466  1.016712  2.467166
  S    -6.490806  4.735782  2.561316
  S    -3.766209  1.137790 -0.444095
  S    -3.492585  4.425962 -0.288596
  S    -4.246343  1.750110  3.628379
  S    -4.124723  5.725577  3.631097
