16  
    
  C     2.964360  5.119946  3.662231
  C     2.842472  8.918909  3.313072
  C     1.647217  4.956537  3.118701
  C     1.585409  8.446608  2.733847
  N     3.914489  4.832546  2.755386
  N     3.871235  8.835188  2.465295
  N     1.568671  4.864168  1.776247
  N     1.665455  7.950908  1.494746
  N     1.264643  5.553647  5.695795
  N     1.133188  8.789407  5.209296
  S     0.402159  5.340608  4.273145
  S     0.294220  8.525839  3.848867
  S     3.178421  4.728295  1.289691
  S     3.310431  8.129901  1.070437
  S     2.926110  5.400314  5.407115
  S     2.719824  9.022815  5.024065
