16  
    
  C    -5.410841  1.065654  1.556510
  C    -5.139448  4.586651  1.524770
  C    -6.647781  0.716769  0.926477
  C    -6.446884  4.192597  1.042101
  N    -4.414840  1.088349  0.699385
  N    -4.228230  4.592103  0.571153
  N    -6.579731  0.676253 -0.410093
  N    -6.497293  3.976288 -0.252399
  N    -7.132870  1.074579  3.475789
  N    -6.801356  4.551986  3.544169
  S    -7.952493  0.967204  2.014712
  S    -7.738120  4.274797  2.176494
  S    -4.992721  0.895274 -0.817160
  S    -4.966970  4.205588 -0.880807
  S    -5.521696  1.369474  3.294912
  S    -5.248679  5.043129  3.216699
