16  
    
  C     3.080063  5.153942  3.372465
  C     3.119018  9.011818  3.730754
  C     1.841902  4.736556  2.702885
  C     1.782909  8.657042  3.302410
  N     4.156762  4.998583  2.594462
  N     4.066733  8.885410  2.778763
  N     2.008773  4.610413  1.364869
  N     1.648928  8.341735  2.027170
  N     1.282602  5.007022  5.239020
  N     1.493942  9.388779  5.816609
  S     0.466457  4.584502  3.854525
  S     0.591640  8.768232  4.520573
  S     3.656363  4.836537  1.036678
  S     3.263048  8.225968  1.437934
  S     2.930062  5.237336  5.128766
  S     3.170767  9.372187  5.523200
