16  
    
  C     2.220499  4.448647  3.047937
  C     1.961431  8.200187  3.101586
  C     1.025865  4.021002  2.359660
  C     0.807904  7.538802  2.507501
  N     3.346773  4.510596  2.338796
  N     3.068666  8.233493  2.361645
  N     1.260445  3.713211  1.109955
  N     1.059668  6.981543  1.331740
  N     0.225382  4.355225  4.812498
  N     0.106874  8.192434  4.954066
  S    -0.408760  3.955264  3.254285
  S    -0.615976  7.624152  3.545014
  S     2.913273  4.050827  0.763540
  S     2.659264  7.470122  0.969817
  S     1.847579  4.824600  4.683924
  S     1.691607  8.778773  4.724214
