16  
    
  C     1.038287  4.454476  2.856600
  C     1.638873  8.653527  2.932364
  C    -0.009937  3.834645  2.130930
  C     0.463190  8.039055  2.329208
  N     2.141589  4.644221  2.121578
  N     2.663609  8.897563  2.115887
  N     0.245202  3.690588  0.834193
  N     0.590997  7.846101  0.994228
  N    -0.877497  3.815115  4.568087
  N    -0.092026  8.449014  4.890206
  S    -1.498290  3.435659  3.051709
  S    -0.918860  8.076975  3.493274
  S     1.739981  4.258296  0.576731
  S     2.116708  8.329135  0.611262
  S     0.763458  4.338427  4.572160
  S     1.504603  8.909905  4.644764
