16  
    
  C    -2.650336  2.209013  2.037900
  C    -2.577951  5.824644  2.087244
  C    -3.883028  1.863383  1.313577
  C    -3.783781  5.407823  1.424560
  N    -1.621324  2.214588  1.208451
  N    -1.437724  5.822110  1.394935
  N    -3.800967  1.883966 -0.014856
  N    -3.538726  5.030262  0.150155
  N    -4.511414  1.933393  3.824395
  N    -4.448321  5.766559  3.861725
  S    -5.267716  1.838332  2.328226
  S    -5.214504  5.287403  2.405592
  S    -2.194403  2.107318 -0.363107
  S    -1.997423  5.396674 -0.182295
  S    -2.914218  2.454738  3.743028
  S    -2.825321  6.183168  3.749390
