16  
    
  C    -0.366236  3.214250  2.589932
  C    -0.257085  7.087289  2.385004
  C    -1.611656  2.860001  1.974872
  C    -1.511775  6.635005  1.660542
  N     0.698047  3.318568  1.790836
  N     0.835619  7.232738  1.639054
  N    -1.426425  2.474656  0.719357
  N    -1.320152  6.561214  0.361496
  N    -2.130691  3.230821  4.512296
  N    -2.092871  6.768435  4.194743
  S    -2.867233  2.503167  3.137147
  S    -2.852367  6.587651  2.731652
  S     0.126401  2.903409  0.284362
  S     0.306705  6.797101  0.056483
  S    -0.521737  3.693720  4.261438
  S    -0.486330  7.219847  4.094802
