16  
    
  C    -5.347316  0.968812  1.600625
  C    -5.175072  4.684601  1.486724
  C    -6.674737  0.777516  0.971941
  C    -6.443488  4.288473  0.938696
  N    -4.299375  1.121251  0.777862
  N    -4.163029  4.601965  0.605545
  N    -6.655917  0.655172 -0.379134
  N    -6.477037  3.960744 -0.373252
  N    -7.166328  1.064052  3.431998
  N    -6.793779  4.517456  3.443879
  S    -8.010264  0.960672  2.069270
  S    -7.727884  4.347656  2.084785
  S    -5.016630  0.912259 -0.763908
  S    -4.921998  4.177307 -0.820394
  S    -5.552363  1.345608  3.263466
  S    -5.198050  5.124169  3.210909
