16  
    
  C     1.281763  4.460137  3.153218
  C     1.608072  7.963352  3.102229
  C    -0.084575  4.169933  2.621859
  C     0.345596  7.879647  2.458452
  N     2.265413  4.695203  2.280978
  N     2.643126  7.994974  2.274860
  N    -0.046814  4.018635  1.300143
  N     0.472207  7.652491  1.161675
  N    -0.308431  4.160891  5.161740
  N    -0.227335  8.176267  4.889263
  S    -1.277381  3.854018  3.908302
  S    -1.007431  8.210223  3.428015
  S     1.467354  4.408481  0.815467
  S     2.028592  7.736769  0.697107
  S     1.273279  4.644102  4.885810
  S     1.440856  8.236175  4.805696
