16  
    
  C    -0.341078  3.507358  2.938580
  C    -0.856345  6.923093  2.694804
  C    -1.548846  2.966288  2.295283
  C    -1.906060  6.340590  1.912445
  N     0.631284  3.823310  2.063135
  N     0.304177  7.007700  2.000617
  N    -1.391102  2.661992  1.023459
  N    -1.612623  6.128556  0.613936
  N    -2.237794  3.280194  4.799283
  N    -2.825828  6.488386  4.346264
  S    -2.934418  2.896117  3.280618
  S    -3.400102  6.041158  2.856664
  S     0.138105  3.145184  0.598268
  S    -0.047124  6.638916  0.414026
  S    -0.608521  3.732780  4.642400
  S    -1.290981  7.018359  4.451558
