16  
    
  C    -6.035159  0.746257  1.393064
  C    -6.100249  4.282960  1.783644
  C    -7.214700  0.185981  0.833445
  C    -7.239871  3.887709  1.041109
  N    -5.248359  1.273294  0.456119
  N    -5.069740  4.662419  1.073303
  N    -7.233939  0.138104 -0.487555
  N    -7.032898  3.868604 -0.262985
  N    -7.685413  0.264674  3.397712
  N    -7.832191  3.682783  3.594991
  S    -8.420334 -0.293700  2.016405
  S    -8.663189  3.535438  2.107948
  S    -5.881899  0.951231 -1.019769
  S    -5.489280  4.481873 -0.521608
  S    -6.138231  0.893834  3.088826
  S    -6.366082  4.508373  3.545219
