16  
    
  C    -3.412047  1.784074  1.554506
  C    -3.759804  5.427584  1.661812
  C    -4.526492  1.134170  0.990663
  C    -4.951432  4.974124  1.027146
  N    -2.367266  1.809199  0.709411
  N    -2.746451  5.743854  0.878593
  N    -4.429055  0.897304 -0.339815
  N    -4.887675  4.885154 -0.301409
  N    -5.072693  1.444191  3.519503
  N    -5.500959  5.249499  3.545729
  S    -5.825945  0.909879  2.178034
  S    -6.258703  4.759575  2.126006
  S    -2.865974  1.303682 -0.768342
  S    -3.346812  5.348796 -0.709028
  S    -3.601843  2.140804  3.320206
  S    -3.932087  5.565416  3.382790
