16  
    
  C     0.403464  3.811893  3.004929
  C     1.064899  7.493447  2.674279
  C    -0.493340  3.008877  2.150670
  C    -0.155899  6.990165  1.982725
  N     1.548547  4.162072  2.427243
  N     1.980199  7.947800  1.851886
  N    -0.176399  3.014278  0.871151
  N    -0.020734  6.985302  0.659581
  N    -1.465122  3.099639  4.540160
  N    -0.706040  6.921800  4.503697
  S    -1.840105  2.529369  3.083938
  S    -1.371397  6.540186  3.070839
  S     1.311448  3.795596  0.805461
  S     1.400189  7.698268  0.253400
  S     0.098824  3.818043  4.738992
  S     0.821198  7.524382  4.426644
