16  
    
  C     0.203476  3.578577  2.291109
  C     0.218387  7.477255  2.887728
  C    -1.040903  3.221386  1.713080
  C    -0.898934  6.787245  2.227927
  N     1.220297  3.632287  1.457658
  N     1.264040  7.701496  2.113507
  N    -1.087553  3.241998  0.384445
  N    -0.632470  6.320997  1.008167
  N    -1.553804  3.273866  4.271515
  N    -1.544552  7.212555  4.701819
  S    -2.406245  2.990485  2.808385
  S    -2.251262  6.594902  3.289429
  S     0.436548  3.515602 -0.076302
  S     0.838474  6.976344  0.614831
  S     0.091017  3.502022  4.047382
  S    -0.021675  7.890936  4.542933
