16  
    
  C    -3.186885  2.130762  1.731958
  C    -3.089861  5.891783  1.973221
  C    -4.221051  1.434747  0.985633
  C    -4.411996  5.570173  1.459269
  N    -2.103905  2.368269  1.008051
  N    -2.105940  6.041522  1.055138
  N    -4.008132  1.296875 -0.320854
  N    -4.383006  5.375739  0.168655
  N    -5.022080  1.577177  3.419528
  N    -4.620648  5.383250  4.072059
  S    -5.599404  0.979743  1.956823
  S    -5.635158  5.262509  2.721321
  S    -2.515692  1.888086 -0.534991
  S    -2.813230  5.777856 -0.394422
  S    -3.423430  2.228122  3.438141
  S    -3.093297  5.946141  3.703036
