16  
    
  C    -0.336784  3.246006  2.589202
  C    -0.214855  7.020350  2.358407
  C    -1.546381  2.582525  2.067831
  C    -1.318537  6.320066  1.794797
  N     0.700113  3.334737  1.736479
  N     0.782271  7.379711  1.519240
  N    -1.467803  2.454005  0.745802
  N    -1.171419  5.956054  0.519868
  N    -1.928886  2.907733  4.624209
  N    -1.999794  6.676275  4.225256
  S    -2.774427  2.476410  3.273367
  S    -2.597783  5.910679  2.886697
  S     0.035604  2.974934  0.252681
  S     0.252191  6.677694  0.045979
  S    -0.290824  3.292578  4.324457
  S    -0.433178  7.299066  4.117315
