16  
    
  C     2.832292  5.178035  3.174150
  C     2.865807  9.067369  3.633190
  C     1.729238  4.454373  2.619680
  C     1.843134  8.374445  2.911541
  N     3.848433  5.341249  2.353706
  N     3.762959  9.631296  2.822479
  N     1.845254  4.190528  1.325368
  N     2.057288  8.273370  1.571735
  N     1.263635  4.911745  5.113408
  N     1.100569  8.648037  5.446366
  S     0.514531  4.165674  3.870212
  S     0.473894  8.103854  3.990833
  S     3.277257  4.855768  0.864605
  S     3.524789  9.069248  1.297020
  S     2.822310  5.476404  4.873559
  S     2.645770  9.302162  5.300984
