16  
    
  C     1.003756  4.188659  2.559348
  C     1.100139  7.681577  3.158609
  C    -0.110789  3.386719  2.189935
  C    -0.137876  7.381790  2.583833
  N     2.078641  4.156942  1.766703
  N     2.094116  7.813465  2.265186
  N     0.088978  2.885095  0.977293
  N    -0.109731  7.173560  1.274421
  N    -0.744694  4.335523  4.489013
  N    -0.606328  7.581301  5.021631
  S    -1.491746  3.388769  3.307799
  S    -1.500452  7.253543  3.674433
  S     1.526402  3.409656  0.398623
  S     1.482624  7.400023  0.802004
  S     0.810053  4.754942  4.190113
  S     1.001642  8.040506  4.873400
