16  
    
  C    -4.387492  0.985021  1.819801
  C    -4.716855  4.587002  1.637369
  C    -5.662118  0.680116  1.202985
  C    -5.884053  4.338982  0.871073
  N    -3.445645  1.437673  1.018707
  N    -3.715459  5.036038  0.884708
  N    -5.577814  0.758637 -0.092767
  N    -5.772162  4.472732 -0.428050
  N    -6.156716  0.635055  3.590978
  N    -6.606610  4.204326  3.265370
  S    -7.005148  0.426254  2.208879
  S    -7.239387  3.835483  1.716324
  S    -4.105366  1.312149 -0.514571
  S    -4.207406  5.021661 -0.698233
  S    -4.554711  1.104821  3.501324
  S    -4.938090  4.468659  3.350752
