16  
    
  C    -0.965438  3.054040  2.482066
  C    -0.639938  6.598033  2.348851
  C    -2.200111  2.930206  1.824290
  C    -1.863158  6.244024  1.655444
  N     0.100158  3.028908  1.661082
  N     0.450874  6.631162  1.593776
  N    -2.109626  2.613810  0.523098
  N    -1.699486  6.009071  0.334621
  N    -2.802108  3.192770  4.328358
  N    -2.453692  6.482857  4.237336
  S    -3.595257  2.773153  2.887607
  S    -3.204705  6.117876  2.800358
  S    -0.511116  2.752807  0.149605
  S    -0.118001  6.412867  0.002595
  S    -1.119066  3.394854  4.160733
  S    -0.806075  6.732805  4.088575
