16  
    
  C    -3.129650  1.686223  2.059636
  C    -3.188873  5.595774  2.107835
  C    -4.358616  1.425833  1.360999
  C    -4.329522  4.943206  1.474297
  N    -2.173753  2.021702  1.188908
  N    -2.179293  5.857807  1.285352
  N    -4.286232  1.328819  0.051556
  N    -4.148733  4.739669  0.193112
  N    -5.082092  1.585091  3.793792
  N    -4.799777  5.032486  4.016818
  S    -5.758837  1.253588  2.316480
  S    -5.558716  4.591171  2.572512
  S    -2.726264  1.744267 -0.312102
  S    -2.671471  5.393326 -0.247960
  S    -3.448220  1.929561  3.686094
  S    -3.354741  5.874054  3.840834
