16  
    
  C     2.910503  5.114051  3.194820
  C     2.820785  9.077653  3.516750
  C     1.683461  4.543888  2.652139
  C     1.769640  8.374446  2.821187
  N     3.818859  5.460211  2.267372
  N     3.773633  9.625544  2.825097
  N     1.831291  4.192489  1.366805
  N     2.044096  8.199974  1.547241
  N     1.272908  4.824421  5.213630
  N     1.138273  8.638460  5.362825
  S     0.554610  4.165300  3.885141
  S     0.454695  8.034188  4.019802
  S     3.289554  4.847716  0.831594
  S     3.537627  9.104413  1.267885
  S     2.768081  5.476007  4.902721
  S     2.662337  9.233452  5.211179
