16  
    
  C    -1.524376  2.972632  1.979686
  C    -0.979074  6.940738  2.288520
  C    -2.573491  2.260861  1.363470
  C    -2.263159  6.585980  1.780125
  N    -0.545270  3.363128  1.195320
  N    -0.038310  7.155253  1.368548
  N    -2.407389  2.161819  0.062316
  N    -2.310577  6.329492  0.479588
  N    -3.300624  2.568881  3.813787
  N    -2.713927  6.719630  4.378140
  S    -3.865095  1.835573  2.435814
  S    -3.567497  6.665915  2.963571
  S    -0.939827  2.789282 -0.329188
  S    -0.770798  6.690286 -0.090586
  S    -1.871010  3.392998  3.675030
  S    -1.098863  7.118113  4.075923
