16  
    
  C    -3.255632  1.921785  2.019252
  C    -3.136296  5.468013  2.125855
  C    -4.452561  1.369862  1.348259
  C    -4.264304  4.786038  1.448343
  N    -2.226776  2.102287  1.184827
  N    -2.159049  5.869097  1.302562
  N    -4.367989  1.315502  0.010895
  N    -4.100333  4.685110  0.144363
  N    -5.015544  1.575256  3.904669
  N    -4.840026  5.117571  3.960517
  S    -5.784995  1.185164  2.492170
  S    -5.583872  4.506384  2.568741
  S    -2.831371  1.802492 -0.396384
  S    -2.606140  5.289219 -0.191217
  S    -3.388969  1.876406  3.813017
  S    -3.349804  5.868896  3.783966
