16  
    
  C    -1.588381  2.717506  2.327247
  C    -1.529597  6.286366  2.350182
  C    -2.710074  2.130810  1.629944
  C    -2.783763  5.899275  1.741762
  N    -0.445843  2.754481  1.650148
  N    -0.505881  6.451400  1.541005
  N    -2.507410  1.984002  0.329117
  N    -2.676167  5.656461  0.475698
  N    -3.500609  2.494150  4.085513
  N    -3.348599  6.219215  4.172049
  S    -4.073135  1.908585  2.626448
  S    -4.076207  5.605220  2.820153
  S    -0.871681  2.209999  0.151069
  S    -1.150474  6.138836  0.035988
  S    -1.905256  2.975596  4.062121
  S    -1.707938  6.557580  4.000622
