16  
    
  C    -5.535137  1.074825  1.341775
  C    -5.108969  4.982020  1.342003
  C    -6.657526  0.457453  0.635657
  C    -6.146603  4.176314  0.755121
  N    -4.464623  1.326826  0.575333
  N    -4.161453  5.453596  0.493094
  N    -6.579641  0.371822 -0.727591
  N    -6.082234  4.111250 -0.600871
  N    -7.243617  0.530524  3.167453
  N    -6.732963  4.451786  3.313535
  S    -7.972673  0.077040  1.774956
  S    -7.452582  3.809032  1.954640
  S    -4.978271  0.910428 -1.009974
  S    -4.735110  4.979387 -1.019043
  S    -5.728850  1.186199  3.085289
  S    -5.363130  5.327358  3.033061
