16  
    
  C     2.223020  4.428621  3.020128
  C     1.951898  8.407702  3.058762
  C     1.068278  3.820831  2.346100
  C     0.802719  7.667852  2.549018
  N     3.307733  4.519326  2.262878
  N     3.058335  8.434514  2.276504
  N     1.253581  3.711372  1.059078
  N     1.063498  7.137166  1.346976
  N     0.279382  4.323933  4.779106
  N     0.136929  8.665075  4.912948
  S    -0.368026  3.889022  3.260763
  S    -0.516088  7.661358  3.727780
  S     2.904695  3.965282  0.725510
  S     2.604326  7.661743  0.925623
  S     1.897029  4.561383  4.734317
  S     1.774273  9.092015  4.641298
