16  
    
  C    -3.818085  1.609890  1.784468
  C    -3.966653  5.495630  1.885646
  C    -5.120328  1.223702  1.113300
  C    -5.169528  5.152491  1.168743
  N    -2.806620  1.599456  0.937874
  N    -2.926458  5.875404  1.148215
  N    -5.067369  1.170302 -0.212203
  N    -4.977283  5.297962 -0.143513
  N    -5.555517  1.479848  3.661241
  N    -5.840696  4.841165  3.591722
  S    -6.458003  1.347684  2.245318
  S    -6.613059  4.713739  2.061868
  S    -3.464262  1.412598 -0.651082
  S    -3.390679  5.667499 -0.384731
  S    -3.926606  1.726469  3.485925
  S    -4.170712  5.114154  3.572897
