16  
    
  C    -4.859354  1.277073  1.474101
  C    -4.780335  4.800974  1.943610
  C    -5.963249  0.667965  0.831685
  C    -5.903855  4.216725  1.315706
  N    -3.761874  1.370731  0.676380
  N    -3.732957  4.976489  1.165334
  N    -5.784972  0.534089 -0.475205
  N    -5.727135  3.991364  0.019807
  N    -6.568347  0.766648  3.328327
  N    -6.390895  4.396392  3.778892
  S    -7.261821  0.308956  1.898666
  S    -7.205919  4.013051  2.420676
  S    -4.212781  0.843050 -0.785061
  S    -4.099151  4.346115 -0.293298
  S    -4.961556  1.229727  3.185868
  S    -4.851641  5.015875  3.627279
