16  
    
  C     3.159306  5.264305  3.402161
  C     3.360584  9.214093  3.782452
  C     2.013629  4.666537  2.737964
  C     2.232199  8.837078  2.951529
  N     4.259425  5.203045  2.670584
  N     4.405908  9.413983  3.002180
  N     2.140657  4.475397  1.420682
  N     2.358883  8.697604  1.667870
  N     1.369404  4.851311  5.261920
  N     1.388362  8.740916  5.350947
  S     0.650618  4.444348  3.823475
  S     0.762519  8.688010  3.880568
  S     3.764423  4.816400  1.083745
  S     3.966848  8.919359  1.440052
  S     2.927523  5.273616  5.094522
  S     2.943754  9.280959  5.498523
