16  
    
  C     3.576395  5.211753  3.571203
  C     3.454240  9.111122  3.548749
  C     2.357543  4.988450  2.889920
  C     2.322035  8.537570  2.922692
  N     4.572207  5.621725  2.765525
  N     4.502345  9.422522  2.752049
  N     2.441995  4.970027  1.560473
  N     2.508435  8.361729  1.607399
  N     1.800584  5.116653  5.511599
  N     1.665389  8.624388  5.368414
  S     0.996495  4.858700  4.059348
  S     0.981706  8.113287  3.886320
  S     4.060001  5.370147  1.235041
  S     3.955203  9.041315  1.269081
  S     3.402735  5.429073  5.300784
  S     3.218661  9.255550  5.248658
