16  
    
  C    -5.212678  1.154772  1.810266
  C    -5.125098  5.036941  1.318919
  C    -6.402932  0.591334  1.158910
  C    -6.325786  4.583084  0.651510
  N    -4.197330  1.307675  0.995287
  N    -3.999204  5.065003  0.602047
  N    -6.242512  0.198863 -0.075770
  N    -6.090767  4.179265 -0.580439
  N    -7.056685  1.023252  3.635306
  N    -6.938765  4.602779  3.139747
  S    -7.745019  0.417287  2.178795
  S    -7.658886  4.148963  1.718576
  S    -4.681087  0.738826 -0.500853
  S    -4.467455  4.419939 -0.883685
  S    -5.356204  1.358073  3.523993
  S    -5.396235  5.275563  3.047465
