16  
    
  C    -5.435996  1.200244  1.271928
  C    -5.407698  4.802684  1.571898
  C    -6.569479  0.566539  0.577376
  C    -6.597923  4.381173  0.892945
  N    -4.395183  1.475570  0.517944
  N    -4.389468  5.057028  0.783397
  N    -6.471900  0.518905 -0.749492
  N    -6.533712  4.328106 -0.414560
  N    -7.132737  0.595651  3.145070
  N    -7.290914  4.658708  3.337832
  S    -7.810024  0.091633  1.688835
  S    -7.976574  4.104610  1.926357
  S    -4.894329  1.029350 -1.063729
  S    -4.998132  4.786664 -0.746335
  S    -5.609494  1.181436  3.025754
  S    -5.648564  4.962823  3.292845
