16  
    
  C    -1.180378  2.956545  2.269744
  C    -0.964030  6.966201  2.420580
  C    -2.515717  2.840295  1.710092
  C    -2.246251  6.647582  1.852239
  N    -0.165530  3.008227  1.392218
  N    -0.018950  7.076330  1.482327
  N    -2.507025  2.771070  0.378510
  N    -2.238174  6.419513  0.556525
  N    -2.888415  3.146812  4.260283
  N    -2.596996  6.705285  4.438375
  S    -3.746941  2.745067  2.872346
  S    -3.491905  6.562010  3.001431
  S    -0.921271  2.878069 -0.094076
  S    -0.699130  6.866274 -0.014634
  S    -1.222894  3.296572  3.986434
  S    -0.989808  6.993043  4.196354
