16  
    
  C     3.097379  4.876635  3.403480
  C     2.972386  9.019300  3.749578
  C     1.832911  4.701422  2.674697
  C     1.675444  8.687325  3.262687
  N     4.163428  5.128253  2.648562
  N     3.998865  8.935154  2.910732
  N     2.027446  4.609076  1.360829
  N     1.786631  8.211418  2.047358
  N     1.238364  5.004112  5.168238
  N     1.535295  9.226055  5.783464
  S     0.495311  4.658019  3.743560
  S     0.489016  8.764805  4.609570
  S     3.658302  4.871661  1.071795
  S     3.318627  8.420409  1.514706
  S     2.871172  5.272589  5.062586
  S     3.114892  9.302937  5.428737
