16  
    
  C    -3.205123  1.863427  1.890024
  C    -3.203316  5.680207  2.128784
  C    -4.392423  1.575659  1.134832
  C    -4.387454  5.139150  1.454548
  N    -2.065981  1.983260  1.197580
  N    -2.295518  6.079958  1.292015
  N    -4.116733  1.346241 -0.127811
  N    -4.280110  5.071665  0.129684
  N    -5.184132  1.763017  3.659232
  N    -4.789882  5.255007  4.028786
  S    -5.716356  1.173623  2.189892
  S    -5.644882  4.805058  2.594632
  S    -2.445300  1.572899 -0.369610
  S    -2.774438  5.570081 -0.244844
  S    -3.547492  2.001096  3.595538
  S    -3.206472  5.821658  3.847236
