16  
    
  C    -4.003380  1.538562  1.707754
  C    -3.963363  5.144756  1.949246
  C    -5.299138  1.277160  1.023249
  C    -5.274489  5.027570  1.238124
  N    -2.974934  1.460998  0.899206
  N    -2.914686  5.478087  1.168443
  N    -5.166810  1.115783 -0.287988
  N    -5.176285  5.193687 -0.054531
  N    -5.751013  1.596216  3.468057
  N    -5.887171  4.927852  3.658915
  S    -6.611818  1.341078  2.094588
  S    -6.701233  4.868085  2.202702
  S    -3.589519  1.154804 -0.611630
  S    -3.606729  5.562860 -0.399971
  S    -4.071881  1.666417  3.409195
  S    -4.214216  5.182597  3.672417
