16  
    
  C    -1.733207  2.395329  2.038560
  C    -1.899677  6.497325  2.125924
  C    -3.041769  2.125198  1.424379
  C    -2.863317  5.545467  1.657017
  N    -0.774502  2.590871  1.137359
  N    -0.912050  6.765559  1.247893
  N    -3.003991  1.932774  0.093332
  N    -2.660298  5.131281  0.365502
  N    -3.421770  2.085266  3.980402
  N    -3.579894  6.152717  4.116019
  S    -4.330567  1.873177  2.611477
  S    -4.235511  5.395236  2.783916
  S    -1.419276  2.137477 -0.363889
  S    -1.308691  5.899368 -0.125608
  S    -1.823191  2.604001  3.723008
  S    -2.147750  6.976854  3.881776
