16  
    
  C     3.042212  5.054747  3.326065
  C     3.093141  9.039349  3.911489
  C     1.813016  4.813119  2.569193
  C     1.880248  8.561019  3.363562
  N     4.125497  5.195412  2.546350
  N     4.030441  9.166389  2.960647
  N     2.062545  4.522076  1.291778
  N     1.804053  8.319089  2.028492
  N     1.105156  5.045130  5.100536
  N     1.256658  8.906488  5.782145
  S     0.461682  4.618004  3.627565
  S     0.488905  8.609170  4.332026
  S     3.660876  4.792394  0.979053
  S     3.298601  8.725588  1.457361
  S     2.762940  5.261156  5.053485
  S     2.847835  9.371405  5.661817
