16  
    
  C    -0.352140  3.301331  2.709714
  C    -0.241250  7.165269  2.482940
  C    -1.413920  2.669364  2.047116
  C    -1.378341  6.672461  1.753856
  N     0.657487  3.485205  1.868194
  N     0.870754  7.115720  1.755807
  N    -1.204444  2.195375  0.835385
  N    -1.206725  6.373573  0.470165
  N    -2.261438  3.110609  4.487674
  N    -2.242017  6.875728  4.223123
  S    -2.761454  2.290703  3.098043
  S    -2.853194  6.542668  2.725821
  S     0.317937  2.777133  0.419666
  S     0.432111  6.700740  0.162742
  S    -0.684358  3.786924  4.367576
  S    -0.664928  7.343816  4.191033
