16  
    
  C     3.002331  5.240135  3.366147
  C     3.398800  9.135584  3.351096
  C     1.838630  4.647791  2.665206
  C     2.152645  8.696482  2.864047
  N     4.010602  5.528735  2.579205
  N     4.401098  9.110790  2.485575
  N     2.117876  4.395095  1.363651
  N     2.247644  8.356694  1.536838
  N     1.334861  4.693116  5.293562
  N     1.911682  8.999169  5.448464
  S     0.509467  4.299357  3.867051
  S     0.903541  8.591119  4.178350
  S     3.676106  4.887928  1.068044
  S     3.760999  8.660196  1.068748
  S     2.753895  5.550274  5.096393
  S     3.533130  9.247564  5.009452
