16  
    
  C    -3.705060  1.733619  1.812470
  C    -3.902377  5.344895  1.815240
  C    -4.952772  1.490516  1.166054
  C    -5.123061  4.929642  1.066645
  N    -2.720967  2.033075  0.971044
  N    -2.847325  5.738080  1.127181
  N    -4.875910  1.347290 -0.148376
  N    -4.906291  5.041996 -0.242477
  N    -5.468239  1.602444  3.741501
  N    -5.780281  4.729405  3.514985
  S    -6.212249  1.112050  2.340184
  S    -6.514017  4.487647  2.055553
  S    -3.344410  1.752936 -0.563557
  S    -3.337575  5.509946 -0.506522
  S    -3.809381  1.800173  3.599698
  S    -4.226456  5.454504  3.506590
