16  
    
  C     0.718500  4.003632  2.929214
  C     0.684923  7.577047  2.723325
  C    -0.448130  3.368463  2.401755
  C    -0.479862  6.850966  2.215969
  N     1.778272  4.041549  2.131070
  N     1.623721  7.811003  1.804789
  N    -0.379354  3.224834  1.080661
  N    -0.403636  6.525376  0.904051
  N    -1.116882  3.825606  4.812153
  N    -0.998924  7.397159  4.707109
  S    -1.847183  3.169394  3.454200
  S    -1.758978  6.698641  3.457160
  S     1.185054  3.370650  0.676512
  S     1.001309  7.107947  0.370286
  S     0.468598  4.373805  4.619715
  S     0.542845  7.878140  4.487232
