16  
    
  C     3.464464  5.422144  3.575584
  C     3.472434  8.970651  3.493727
  C     2.271625  4.918585  2.947280
  C     2.360227  8.381450  2.795144
  N     4.551170  5.448052  2.793295
  N     4.473589  9.495185  2.716092
  N     2.345356  4.885586  1.641273
  N     2.583055  8.438778  1.460259
  N     1.789208  4.919695  5.392927
  N     1.823936  8.694025  5.380047
  S     0.932693  4.700349  4.010859
  S     1.062411  8.100224  4.050838
  S     3.875160  5.302512  1.250791
  S     4.080134  9.103015  1.173296
  S     3.416105  5.397599  5.299781
  S     3.300754  9.362803  5.206816
