16  
    
  C    -0.416815  3.595896  2.878391
  C    -0.786781  6.920988  2.666012
  C    -1.524955  2.938379  2.287521
  C    -1.875192  6.384675  1.920181
  N     0.654426  3.791036  2.090420
  N     0.372746  7.038124  1.992238
  N    -1.381294  2.666046  0.989248
  N    -1.604519  6.127469  0.647132
  N    -2.191533  3.249609  4.742732
  N    -2.792879  6.515017  4.335774
  S    -2.918756  2.919175  3.292360
  S    -3.362454  6.035482  2.840135
  S     0.132910  3.175680  0.586716
  S    -0.086268  6.639388  0.419239
  S    -0.603068  3.729451  4.646001
  S    -1.209447  7.037185  4.433662
