16  
    
  C     3.182607  5.148806  3.456948
  C     3.715520  9.025663  3.399875
  C     1.992616  4.662821  2.822083
  C     2.453299  8.536434  2.861534
  N     4.127503  5.509422  2.546933
  N     4.643739  9.234582  2.469114
  N     2.055727  4.479266  1.519725
  N     2.382713  8.332945  1.573363
  N     1.255958  5.115664  5.244727
  N     2.061462  8.872240  5.382579
  S     0.658478  4.329527  3.900500
  S     1.138177  8.472099  4.016694
  S     3.570762  5.066590  1.030711
  S     3.920410  8.857426  1.003439
  S     2.918971  5.461414  5.216795
  S     3.601216  9.480590  5.036187
