16  
    
  C     0.540360  3.749699  2.922856
  C     0.562222  7.496049  2.854561
  C    -0.746228  3.417179  2.391563
  C    -0.544170  7.124271  2.053604
  N     1.536269  3.804398  2.047741
  N     1.736431  7.691871  2.194752
  N    -0.778651  3.530645  1.073213
  N    -0.231858  6.827049  0.768134
  N    -1.114311  3.617949  4.917748
  N    -1.410299  7.272797  4.537498
  S    -2.051913  3.288597  3.630867
  S    -2.044966  6.985584  3.048523
  S     0.769201  3.528817  0.569582
  S     1.311190  7.250372  0.629987
  S     0.521123  3.940054  4.651412
  S     0.238818  7.694655  4.548350
