16  
    
  C     3.094912  5.160674  3.422460
  C     3.410996  9.085540  3.495406
  C     1.996519  4.452433  2.734847
  C     2.119038  8.699368  2.999207
  N     4.047858  5.509620  2.565693
  N     4.380135  9.021367  2.576522
  N     2.143351  4.316538  1.447794
  N     2.070118  8.420086  1.720785
  N     1.147707  4.997690  5.091604
  N     1.612362  8.807646  5.482626
  S     0.605870  4.162336  3.749071
  S     0.777444  8.606965  4.062704
  S     3.654967  4.970101  1.098194
  S     3.581888  8.708583  1.095967
  S     2.775872  5.422170  5.134360
  S     3.226039  9.285056  5.297769
