16  
    
  C     0.334211  3.557832  2.937749
  C     0.408779  7.662616  2.801476
  C    -0.862271  3.167966  2.201277
  C    -0.936404  7.501987  2.275375
  N     1.350491  3.911607  2.160770
  N     1.358811  7.681187  1.877079
  N    -0.803229  3.451498  0.907415
  N    -1.010977  7.418052  0.946883
  N    -1.403644  3.124767  4.731356
  N    -1.204760  7.542757  4.792726
  S    -2.231186  2.847940  3.290000
  S    -2.174488  7.453303  3.466332
  S     0.839452  3.747666  0.581444
  S     0.546783  7.558951  0.459001
  S     0.178882  3.420679  4.605803
  S     0.435515  7.557766  4.544585
