16  
    
  C     0.040443  3.312367  2.487442
  C    -0.019099  7.153335  2.737171
  C    -1.126635  2.876341  1.786407
  C    -1.252908  6.724222  2.007716
  N     1.128395  3.584247  1.767409
  N     0.992679  7.448282  1.950637
  N    -0.956579  2.735911  0.470527
  N    -1.103839  6.590062  0.717090
  N    -1.795252  2.970208  4.272952
  N    -1.722216  6.647406  4.481597
  S    -2.402411  2.300455  2.881003
  S    -2.574426  6.457938  3.047704
  S     0.593209  3.280078  0.187781
  S     0.425993  7.167525  0.379494
  S    -0.200506  3.507863  4.159193
  S    -0.125768  7.173665  4.417605
