16  
    
  C    -6.142094  0.866644  1.381634
  C    -6.079183  4.414589  1.859806
  C    -7.272891  0.149350  0.843647
  C    -7.276329  3.939336  1.093678
  N    -5.221044  1.333716  0.514180
  N    -4.981207  4.684597  1.088380
  N    -7.316942  0.132461 -0.488065
  N    -7.063974  3.912302 -0.239043
  N    -7.567556  0.272323  3.356745
  N    -7.991864  3.875186  3.588449
  S    -8.348858 -0.368911  2.028913
  S    -8.657930  3.569906  2.095188
  S    -5.913902  0.871005 -0.947587
  S    -5.510517  4.427511 -0.465052
  S    -6.084990  0.931575  3.155458
  S    -6.424926  4.447518  3.513281
