16  
    
  C    -5.212674  1.022556  1.799252
  C    -5.207987  4.928182  1.309647
  C    -6.434560  0.491315  1.153893
  C    -6.368070  4.408484  0.635985
  N    -4.196491  1.223206  0.968138
  N    -4.101474  4.902979  0.595700
  N    -6.316913  0.333982 -0.147982
  N    -6.149910  4.147982 -0.647093
  N    -7.065825  1.051027  3.583500
  N    -6.952088  4.771702  3.143392
  S    -7.890718  0.531180  2.246310
  S    -7.742131  4.327777  1.719345
  S    -4.796497  0.805166 -0.546705
  S    -4.525854  4.452272 -0.920986
  S    -5.489367  1.331640  3.471664
  S    -5.393290  5.282113  3.000093
