16  
    
  C    -3.502027  1.806492  1.775390
  C    -3.618347  5.724036  1.795135
  C    -4.546990  0.902233  1.247666
  C    -4.864454  5.367871  1.085174
  N    -2.503334  2.130768  0.969915
  N    -2.580391  5.879845  0.994912
  N    -4.366124  0.665490 -0.061449
  N    -4.707961  5.255341 -0.236160
  N    -5.293700  1.525039  3.611705
  N    -5.370204  5.133526  3.547060
  S    -5.922703  0.745835  2.310758
  S    -6.182133  4.935663  2.127616
  S    -2.952892  1.416796 -0.508056
  S    -3.174992  5.651694 -0.578910
  S    -3.797650  2.126658  3.462269
  S    -3.770955  5.718338  3.541102
