16  
    
  C     0.738575  3.982903  2.959159
  C     0.677568  7.575945  2.758414
  C    -0.462695  3.405308  2.382262
  C    -0.491352  6.831259  2.241706
  N     1.758340  4.032424  2.110965
  N     1.604524  7.790391  1.817689
  N    -0.362033  3.144903  1.100172
  N    -0.393058  6.560801  0.907984
  N    -1.154332  3.840259  4.800688
  N    -1.007507  7.388428  4.701008
  S    -1.846294  3.176491  3.466943
  S    -1.757910  6.708857  3.437918
  S     1.175578  3.368679  0.688521
  S     1.034904  7.120429  0.375461
  S     0.467003  4.387762  4.623668
  S     0.541378  7.859245  4.464114
