16  
    
  C     3.088609  5.052955  3.390272
  C     3.297518  8.879801  3.579845
  C     1.955353  4.460045  2.674579
  C     2.031056  8.607141  2.956485
  N     4.119825  5.468118  2.661563
  N     4.329968  9.050639  2.748902
  N     2.229808  4.315195  1.401484
  N     2.146805  8.527913  1.653086
  N     1.164549  5.078922  5.120989
  N     1.539135  8.890171  5.457930
  S     0.621571  4.138798  3.855580
  S     0.709138  8.575336  4.066130
  S     3.707418  5.003659  1.064200
  S     3.668489  8.828785  1.241906
  S     2.782314  5.355701  5.090301
  S     3.155408  9.302157  5.293495
