16  
    
  C    -2.746470  2.663130  2.392729
  C    -2.653830  5.853784  1.989270
  C    -3.799711  1.889121  1.701838
  C    -3.846530  5.499629  1.320199
  N    -1.802994  3.024092  1.535720
  N    -1.616497  6.161500  1.186942
  N    -3.731093  1.815935  0.376544
  N    -3.723892  5.487380 -0.037621
  N    -4.378261  2.050520  4.241942
  N    -4.506339  5.441394  3.799871
  S    -4.983172  1.369548  2.832956
  S    -5.232038  5.058087  2.309254
  S    -2.254499  2.500685  0.025075
  S    -2.131507  6.064924 -0.345920
  S    -2.840163  2.709937  4.089259
  S    -2.988257  6.064322  3.682553
