16  
    
  C     0.134424  3.516018  2.735788
  C     0.276242  7.361512  2.682760
  C    -0.954740  2.964761  2.046619
  C    -1.009259  7.315504  2.091492
  N     1.132295  3.972989  1.983661
  N     1.285031  7.505559  1.865405
  N    -0.790333  2.840557  0.756417
  N    -0.945216  7.367168  0.787176
  N    -1.638139  3.051771  4.573000
  N    -1.416158  7.366011  4.566643
  S    -2.332241  2.632522  3.100823
  S    -2.322301  7.252899  3.160554
  S     0.789490  3.439959  0.455263
  S     0.722447  7.575133  0.338616
  S    -0.119817  3.781494  4.450833
  S     0.241722  7.549936  4.356866
