16  
    
  C    -3.440739  1.567199  2.118335
  C    -3.286871  5.429179  2.063199
  C    -4.677752  1.154365  1.490692
  C    -4.499642  5.039045  1.402040
  N    -2.359447  1.523347  1.335499
  N    -2.234313  5.451121  1.252985
  N    -4.522316  0.936833  0.202794
  N    -4.383037  4.828756  0.061064
  N    -5.264939  1.439105  3.859145
  N    -4.970851  5.342333  3.949497
  S    -6.057933  1.168635  2.440895
  S    -5.803043  4.959509  2.610978
  S    -2.915235  1.104085 -0.149665
  S    -2.783400  5.057057 -0.309461
  S    -3.666746  1.832988  3.814096
  S    -3.308473  5.685823  3.830077
