16  
    
  C    -2.625235  2.632210  2.117867
  C    -2.458925  6.153422  2.138781
  C    -3.849039  2.103010  1.488456
  C    -3.576739  5.605342  1.416537
  N    -1.661530  2.794209  1.203660
  N    -1.400823  6.360708  1.350491
  N    -3.746929  1.783135  0.191957
  N    -3.418408  5.473608  0.133445
  N    -4.312400  2.485295  4.009401
  N    -4.449669  6.112127  3.722224
  S    -5.101158  1.875180  2.676837
  S    -5.010249  5.351106  2.381549
  S    -2.167148  2.168473 -0.215655
  S    -1.856137  6.098196 -0.210371
  S    -2.734069  2.861371  3.836731
  S    -2.894568  6.662161  3.690893
