16  
    
  C     1.898564  4.516738  3.368049
  C     1.436963  8.175849  3.043984
  C     0.623947  4.158514  2.787264
  C     0.416780  7.326006  2.435004
  N     2.844931  4.709287  2.484108
  N     2.311851  8.629630  2.143185
  N     0.716955  3.670692  1.556492
  N     0.583554  7.086282  1.136646
  N     0.109030  4.552315  5.193300
  N    -0.302884  7.567287  4.801023
  S    -0.786916  4.218310  3.859110
  S    -0.950349  6.960193  3.411201
  S     2.305734  4.058540  0.976135
  S     1.949406  7.927009  0.704334
  S     1.721939  4.855809  5.037190
  S     1.204295  8.225087  4.746054
