16  
    
  C    -4.348336  1.448330  1.926788
  C    -4.590409  4.913687  1.725351
  C    -5.519564  0.884242  1.388654
  C    -5.695426  4.291998  0.983386
  N    -3.439580  1.793698  1.015440
  N    -3.597613  5.308223  0.923273
  N    -5.528999  0.813079  0.059883
  N    -5.554935  4.373627 -0.349054
  N    -5.963654  0.894155  3.974029
  N    -6.472111  4.495966  3.413237
  S    -6.807497  0.542249  2.617926
  S    -7.009198  3.829807  2.021198
  S    -4.123815  1.394165 -0.499911
  S    -4.006266  4.996002 -0.689271
  S    -4.464594  1.605775  3.651937
  S    -4.901684  4.963265  3.492432
