16  
    
  C     2.840497  5.293576  3.320035
  C     2.859401  8.963070  3.359189
  C     1.754493  4.550160  2.733580
  C     1.713974  8.363842  2.715124
  N     3.877278  5.549321  2.517687
  N     3.898087  9.213535  2.557660
  N     1.859135  4.511665  1.392225
  N     1.851135  8.365149  1.406081
  N     1.192833  4.821034  5.283194
  N     1.156016  8.276371  5.247350
  S     0.464004  4.280127  3.929631
  S     0.533873  7.766145  3.791273
  S     3.336268  5.112562  0.987909
  S     3.350209  8.912790  1.008364
  S     2.757031  5.450480  5.028216
  S     2.633776  9.095633  5.110951
