16  
    
  C    -5.365623  1.138742  1.336383
  C    -5.485038  4.759563  1.563383
  C    -6.525757  0.481226  0.677042
  C    -6.742648  4.421327  0.983399
  N    -4.378929  1.402234  0.525798
  N    -4.467256  4.903112  0.739745
  N    -6.407643  0.423528 -0.646112
  N    -6.680780  4.310212 -0.327644
  N    -7.131050  0.906117  3.164971
  N    -7.159667  4.435834  3.564681
  S    -7.811297  0.164756  1.793384
  S    -8.028168  4.209736  2.175085
  S    -4.880989  0.970736 -1.021432
  S    -5.083020  4.541214 -0.754038
  S    -5.490084  1.266715  3.093790
  S    -5.571064  4.863801  3.280480
