16  
    
  C    -1.760446  2.585435  2.374625
  C    -1.747940  6.052526  2.388397
  C    -2.989564  2.150068  1.737816
  C    -2.910559  5.585605  1.631720
  N    -0.667283  2.618465  1.604372
  N    -0.720615  6.442020  1.623105
  N    -2.820463  2.083127  0.433815
  N    -2.712077  5.408231  0.339687
  N    -3.588980  2.346864  4.231730
  N    -3.603043  5.750801  4.236136
  S    -4.387572  2.139157  2.783370
  S    -4.310779  5.367039  2.729603
  S    -1.267108  2.388290  0.067130
  S    -1.093205  5.883442  0.088469
  S    -1.932312  2.644493  4.164616
  S    -1.977356  6.093956  4.207892
