16  
    
  C     0.065167  3.491583  2.343922
  C     0.301775  7.576182  2.775389
  C    -1.182734  3.251437  1.756707
  C    -0.839905  6.892788  2.168602
  N     1.054914  3.694474  1.489174
  N     1.392917  7.679449  1.988714
  N    -1.154920  3.170790  0.445233
  N    -0.571128  6.458872  0.923303
  N    -1.693684  3.500998  4.293569
  N    -1.471071  7.257496  4.722680
  S    -2.502475  3.048286  2.934711
  S    -2.151341  6.599472  3.397768
  S     0.435675  3.392089 -0.000948
  S     0.943790  7.033151  0.520160
  S    -0.036692  3.852379  4.027250
  S     0.045076  7.951083  4.520079
