16  
    
  C    -1.283111  3.324299  2.113899
  C    -1.013117  6.848023  2.570805
  C    -2.355847  2.630893  1.530602
  C    -2.308413  6.667050  1.948995
  N    -0.353761  3.628647  1.208119
  N     0.024989  7.223304  1.774244
  N    -2.419701  2.710762  0.178206
  N    -2.223478  6.641247  0.588028
  N    -2.869138  2.888246  4.090643
  N    -2.766135  6.727998  4.523866
  S    -3.594742  2.225570  2.717126
  S    -3.664708  6.710393  3.117936
  S    -0.942027  3.261375 -0.307403
  S    -0.631786  7.022581  0.231011
  S    -1.389566  3.663380  3.802105
  S    -1.142611  6.958239  4.334966
