16  
    
  C    -5.359425  1.125669  1.687915
  C    -5.113660  4.723735  1.397684
  C    -6.675468  0.797092  1.044822
  C    -6.365785  4.283003  0.772066
  N    -4.265516  1.046679  0.932668
  N    -4.070676  4.738780  0.569538
  N    -6.585239  0.646756 -0.240375
  N    -6.298590  4.073992 -0.533371
  N    -7.155823  0.991164  3.496772
  N    -7.005047  5.145199  3.098038
  S    -8.016676  0.660411  2.140994
  S    -7.777212  4.497769  1.762932
  S    -4.935621  0.783324 -0.611133
  S    -4.746886  4.388809 -0.920136
  S    -5.531988  1.314521  3.431975
  S    -5.325996  5.181830  3.085405
