16  
    
  C    -2.201279  2.458641  1.949038
  C    -2.131978  5.840743  2.239703
  C    -3.470124  2.111127  1.352840
  C    -3.386558  5.400136  1.590872
  N    -1.273986  2.598593  1.024133
  N    -1.176344  5.954006  1.382984
  N    -3.442118  1.725189  0.061150
  N    -3.339409  5.370595  0.269118
  N    -3.880003  2.372803  3.930659
  N    -4.028375  5.932699  4.038389
  S    -4.732395  1.983770  2.548783
  S    -4.751919  5.429525  2.624436
  S    -1.878144  2.052605 -0.405053
  S    -1.736441  5.728112 -0.171370
  S    -2.259749  2.665381  3.710536
  S    -2.406756  6.145051  3.933266
