16  
    
  C    -5.308986  1.212636  1.476593
  C    -5.302637  4.551025  1.535245
  C    -6.646790  0.963527  0.885298
  C    -6.576181  4.126777  1.026263
  N    -4.245913  1.185267  0.661574
  N    -4.304201  4.654130  0.638669
  N    -6.594452  0.649616 -0.414035
  N    -6.621333  3.927653 -0.320662
  N    -7.072405  1.110703  3.346305
  N    -6.872937  4.809423  3.539076
  S    -7.986731  0.854331  1.983919
  S    -7.769975  4.105830  2.324623
  S    -4.957658  0.786132 -0.848916
  S    -5.070191  4.288861 -0.800008
  S    -5.479307  1.332194  3.197885
  S    -5.205986  4.823311  3.269228
