16  
    
  C     2.933751  5.256206  3.561639
  C     2.973923  8.742045  3.432318
  C     1.733327  4.852672  2.849023
  C     1.849782  8.180976  2.763067
  N     3.975382  5.498109  2.779869
  N     3.977398  9.186238  2.597172
  N     1.870436  4.787341  1.550037
  N     1.971620  8.025216  1.452258
  N     1.104055  4.972869  5.317559
  N     1.033543  8.405655  5.196739
  S     0.391210  4.549445  3.846110
  S     0.446626  7.962062  3.639550
  S     3.450138  5.285661  1.242799
  S     3.474594  8.707570  1.072878
  S     2.685085  5.342226  5.258801
  S     2.627716  8.877904  5.196809
