16  
    
  C    -0.346564  3.487591  2.776949
  C    -0.599150  6.888445  2.506993
  C    -1.549513  2.966646  2.156348
  C    -1.731278  6.400127  1.838402
  N     0.688412  3.583083  1.944813
  N     0.448963  7.130299  1.758863
  N    -1.515184  3.029027  0.811255
  N    -1.595079  6.171221  0.523650
  N    -2.094217  3.211518  4.646448
  N    -2.410548  6.714569  4.416983
  S    -2.919268  2.901746  3.282619
  S    -3.094305  6.104153  3.042152
  S     0.068042  3.226375  0.417409
  S    -0.010964  6.726382  0.163137
  S    -0.538432  3.752256  4.480198
  S    -0.784365  7.091459  4.281063
