16  
    
  C     2.336985  4.768854  3.316939
  C     2.394877  8.656161  3.514524
  C     1.095673  4.473125  2.654705
  C     1.155100  8.357822  2.870739
  N     3.308129  5.019223  2.460727
  N     3.373129  8.848785  2.649180
  N     1.235188  4.298084  1.350340
  N     1.202903  8.393153  1.542404
  N     0.622361  4.250118  5.172711
  N     0.564771  8.739459  5.375607
  S    -0.148608  3.834421  3.734644
  S    -0.161500  8.140821  3.990619
  S     2.733165  4.771366  0.900494
  S     2.787656  8.629594  1.131969
  S     2.173497  4.706957  5.039901
  S     2.227176  9.052623  5.198193
