16  
    
  C     0.882485  3.750240  3.065646
  C     1.162300  7.551977  2.945655
  C    -0.392433  3.445986  2.533547
  C     0.020592  7.043183  2.273379
  N     1.835507  3.813083  2.154062
  N     2.221193  7.728937  2.162520
  N    -0.369082  3.210792  1.223950
  N     0.195440  6.694639  1.005193
  N    -0.843301  3.411937  5.038824
  N    -0.747694  7.700454  4.684579
  S    -1.723063  3.250341  3.641733
  S    -1.472044  6.980220  3.353027
  S     1.141027  3.594566  0.714686
  S     1.799576  7.116992  0.706590
  S     0.784368  3.876099  4.811916
  S     0.872057  7.959523  4.648307
