16  
    
  C     2.209047  4.354867  3.028458
  C     2.002543  8.270842  3.117587
  C     1.044620  3.975089  2.265505
  C     0.841358  7.610540  2.593028
  N     3.391199  4.427976  2.372008
  N     3.077837  8.214014  2.341268
  N     1.336203  3.865837  0.963273
  N     1.014956  7.099203  1.406263
  N     0.239843  4.385587  4.666132
  N     0.125670  8.311353  4.900744
  S    -0.389588  3.905463  3.304701
  S    -0.544269  7.559962  3.561690
  S     2.958521  4.021804  0.842940
  S     2.554481  7.419140  0.922009
  S     1.836355  4.798977  4.720586
  S     1.628093  8.949482  4.737140
