16  
    
  C     0.967534  4.219513  2.753670
  C     1.610796  8.707086  2.979249
  C    -0.052224  3.619844  2.008108
  C     0.397226  8.217931  2.344469
  N     1.998657  4.497893  2.011528
  N     2.618455  8.921760  2.132158
  N     0.108847  3.662785  0.692585
  N     0.477763  7.885023  1.044645
  N    -0.925517  3.855798  4.386560
  N    -0.131986  8.432607  4.915434
  S    -1.454380  3.259208  2.983707
  S    -0.929460  8.028274  3.486454
  S     1.688470  4.147874  0.455119
  S     2.053481  8.429781  0.680389
  S     0.655466  4.376770  4.460057
  S     1.470163  8.852604  4.740540
