16  
    
  C     0.742560  3.954107  2.995121
  C     0.660549  7.556766  2.772405
  C    -0.492928  3.447515  2.368835
  C    -0.493520  6.825315  2.252601
  N     1.735738  4.020745  2.091644
  N     1.587247  7.770306  1.835489
  N    -0.353469  3.052050  1.117747
  N    -0.395867  6.592043  0.931904
  N    -1.177428  3.860343  4.792440
  N    -1.016209  7.377754  4.703738
  S    -1.840133  3.185580  3.475697
  S    -1.760783  6.716233  3.409542
  S     1.170115  3.371447  0.694353
  S     1.072863  7.136971  0.386877
  S     0.462456  4.397460  4.630512
  S     0.543740  7.845659  4.441947
