16  
    
  C    -4.313925  1.572255  1.982259
  C    -4.596677  5.059723  1.704764
  C    -5.565904  1.102322  1.371647
  C    -5.826731  4.508995  1.061967
  N    -3.359218  1.800253  1.096577
  N    -3.655065  5.349604  0.805388
  N    -5.472610  0.769042  0.064966
  N    -5.695226  4.343322 -0.250069
  N    -6.019795  1.214011  3.912282
  N    -6.343577  4.653193  3.630012
  S    -6.842295  0.703972  2.560333
  S    -7.123218  4.234982  2.222317
  S    -3.859524  1.240854 -0.403595
  S    -4.183509  4.835728 -0.692443
  S    -4.540273  1.811864  3.687059
  S    -4.843541  5.336701  3.495586
