16  
    
  C    -5.075240  1.155192  1.805130
  C    -5.022338  4.885427  1.517198
  C    -6.246480  0.644833  1.159457
  C    -6.160362  4.302081  0.815139
  N    -4.055661  1.399276  0.944280
  N    -3.964817  5.070405  0.749335
  N    -6.045501  0.273831 -0.109415
  N    -5.934300  4.068311 -0.470437
  N    -6.904753  0.926981  3.614077
  N    -6.864155  4.598469  3.283960
  S    -7.575361  0.245790  2.284032
  S    -7.471561  3.983653  1.859474
  S    -4.438606  0.672313 -0.496116
  S    -4.337329  4.548782 -0.790026
  S    -5.343194  1.419864  3.460366
  S    -5.306498  5.270684  3.181686
