16  
    
  C    -3.563985  2.010198  1.758771
  C    -4.036803  5.250047  1.615689
  C    -4.827679  1.560176  1.083581
  C    -5.196036  4.676754  1.018052
  N    -2.612996  2.339889  0.887898
  N    -2.993183  5.420974  0.829294
  N    -4.728667  1.359479 -0.232399
  N    -5.023705  4.357204 -0.285777
  N    -5.132006  1.297728  3.626304
  N    -5.639305  5.072526  3.570241
  S    -6.022281  1.043971  2.211855
  S    -6.387619  4.407522  2.201815
  S    -3.215659  1.832711 -0.637533
  S    -3.528382  4.977093 -0.643048
  S    -3.657893  2.168970  3.428450
  S    -4.100726  5.532538  3.353083
