16  
    
  C     0.820876  4.186525  2.435191
  C     1.533361  8.268774  3.240230
  C    -0.269563  3.399462  1.896184
  C     0.273015  8.052066  2.631099
  N     1.952331  4.265902  1.677906
  N     2.548087  8.425764  2.419045
  N    -0.158443  3.102723  0.602716
  N     0.325690  8.093150  1.312004
  N    -0.874628  3.804009  4.383751
  N    -0.271924  8.212493  5.137427
  S    -1.615939  3.121169  3.020664
  S    -1.049006  7.973403  3.687058
  S     1.350097  3.654469  0.180179
  S     1.867301  8.269602  0.836283
  S     0.714078  4.175183  4.145653
  S     1.415814  8.304683  4.957668
