16  
    
  C    -3.559688  1.590187  2.071027
  C    -3.242827  5.357979  2.073449
  C    -4.733905  1.139038  1.353472
  C    -4.546579  4.962371  1.519333
  N    -2.447516  1.757771  1.377325
  N    -2.235212  5.357805  1.218109
  N    -4.433114  0.767532  0.113384
  N    -4.519038  4.752767  0.218673
  N    -5.496774  1.428633  3.882921
  N    -5.044185  5.372699  3.995752
  S    -6.118519  1.018589  2.384155
  S    -5.862936  4.942965  2.634835
  S    -2.819651  1.208378 -0.177034
  S    -3.010736  4.985922 -0.256661
  S    -3.898564  1.924914  3.767964
  S    -3.398348  5.697574  3.711390
