16  
    
  C    -1.076373  3.016982  2.490431
  C    -0.548475  6.532895  2.291271
  C    -2.339795  2.866120  1.743351
  C    -1.852848  6.190405  1.712620
  N    -0.057194  3.091360  1.638214
  N     0.423954  6.735139  1.440777
  N    -2.192343  2.468673  0.465732
  N    -1.865388  6.321034  0.398634
  N    -2.919439  3.192405  4.271535
  N    -2.391805  6.607454  4.244564
  S    -3.718079  3.010482  2.815719
  S    -3.217062  6.280113  2.825650
  S    -0.567702  2.680938  0.135964
  S    -0.315291  6.554819 -0.101000
  S    -1.252386  3.341689  4.147987
  S    -0.706200  6.899787  4.022223
