16  
    
  C     0.735193  3.664054  3.176230
  C     1.190807  7.567203  2.903731
  C    -0.500661  3.455261  2.492301
  C     0.012235  7.007108  2.217674
  N     1.699927  4.105699  2.326452
  N     2.264374  7.631497  2.105581
  N    -0.348494  3.352463  1.150873
  N     0.223311  6.756056  0.917005
  N    -1.000382  3.250617  5.026797
  N    -0.772823  7.522413  4.589679
  S    -1.800372  3.064251  3.608191
  S    -1.395372  6.851018  3.160130
  S     1.222682  3.696620  0.853310
  S     1.794209  7.176783  0.622568
  S     0.623963  3.647801  4.892791
  S     0.833054  7.958772  4.542468
