16  
    
  C    -0.336014  3.425489  2.957322
  C    -0.926103  6.813391  2.733849
  C    -1.515887  2.975284  2.325718
  C    -2.004093  6.291809  1.886586
  N     0.594168  3.763203  2.063680
  N     0.174995  7.041772  2.049228
  N    -1.403292  2.660688  1.031195
  N    -1.675224  6.146249  0.613946
  N    -2.267272  3.328374  4.766094
  N    -2.906842  6.427928  4.339802
  S    -2.972158  2.853169  3.306157
  S    -3.445390  6.049809  2.850872
  S     0.132971  3.107330  0.615722
  S    -0.015855  6.622513  0.443473
  S    -0.621885  3.741720  4.648192
  S    -1.375645  6.995867  4.434824
