16  
    
  C    -4.303971  1.465693  2.033312
  C    -4.649951  5.223371  1.690078
  C    -5.469187  0.971478  1.375106
  C    -5.873090  4.694602  1.125936
  N    -3.294810  1.756743  1.224351
  N    -3.634470  5.390556  0.841580
  N    -5.293698  0.619232  0.086187
  N    -5.743341  4.391959 -0.148737
  N    -6.123035  1.470226  3.738164
  N    -6.230821  4.928210  3.584807
  S    -6.861237  0.870675  2.317402
  S    -7.177291  4.535739  2.251058
  S    -3.727638  1.255440 -0.266719
  S    -4.235509  4.829247 -0.579797
  S    -4.525890  1.973957  3.736359
  S    -4.671891  5.442932  3.390884
