16  
    
  C    -1.504770  3.014548  2.008933
  C    -1.078720  6.837151  2.308340
  C    -2.566306  2.221043  1.361001
  C    -2.327507  6.448125  1.742405
  N    -0.449245  3.211273  1.231041
  N    -0.183558  7.110632  1.345031
  N    -2.446789  2.066176  0.051037
  N    -2.319052  6.344774  0.411161
  N    -3.322711  2.486869  3.836009
  N    -2.689642  6.897054  4.272573
  S    -3.874334  1.725519  2.439549
  S    -3.581118  6.575843  2.930663
  S    -0.930676  2.705355 -0.299569
  S    -0.780770  6.650755 -0.129193
  S    -1.912303  3.341279  3.625963
  S    -1.100211  7.130128  4.020884
