16  
    
  C    -0.026628  3.354012  2.496105
  C    -0.048604  7.115747  2.665019
  C    -1.095455  2.670096  1.823482
  C    -1.229066  6.747763  2.044608
  N     1.040254  3.609043  1.778590
  N     0.955543  7.427757  1.868007
  N    -0.979226  2.725402  0.504774
  N    -1.087569  6.552406  0.738224
  N    -1.858935  2.960353  4.305075
  N    -1.754942  6.573151  4.451032
  S    -2.407767  2.299573  2.880228
  S    -2.564669  6.438117  3.019847
  S     0.595406  3.236649  0.214658
  S     0.396430  7.201097  0.329364
  S    -0.229587  3.517576  4.203398
  S    -0.146528  7.107046  4.413739
