16  
    
  C     2.910219  5.211723  3.726369
  C     2.855367  8.755289  3.271861
  C     1.594290  5.264901  3.126572
  C     1.565480  8.368597  2.758664
  N     3.918719  5.042997  2.890877
  N     3.802811  8.738791  2.321322
  N     1.597167  4.754177  1.897868
  N     1.533247  8.009507  1.469449
  N     1.369198  5.457703  5.661210
  N     1.070531  8.903743  5.146041
  S     0.352242  5.409837  4.369788
  S     0.220301  8.436927  3.772416
  S     3.187617  4.629691  1.421397
  S     3.073489  8.122915  0.869936
  S     3.019720  5.509419  5.394523
  S     2.733536  9.111164  5.015283
