16  
    
  C    -4.128521  1.327882  1.724491
  C    -4.161435  5.261256  1.948669
  C    -5.390727  1.217855  0.981705
  C    -5.405470  5.210534  1.228113
  N    -3.057559  1.230209  0.924777
  N    -3.067558  5.202118  1.185221
  N    -5.211170  1.139658 -0.330702
  N    -5.306301  5.052047 -0.094176
  N    -5.955486  1.531308  3.485997
  N    -5.861620  4.914234  3.841482
  S    -6.732566  1.310841  2.064547
  S    -6.740519  4.910085  2.431652
  S    -3.585999  1.144516 -0.605177
  S    -3.650904  5.121796 -0.434161
  S    -4.327378  1.671447  3.433123
  S    -4.268359  5.272539  3.694014
