16  
    
  C    -3.322500  1.585737  2.063717
  C    -3.146140  5.426716  2.064194
  C    -4.608666  1.286914  1.530384
  C    -4.357410  4.990052  1.380082
  N    -2.394866  1.789623  1.132519
  N    -2.091135  5.539206  1.258261
  N    -4.651198  1.227957  0.211123
  N    -4.126646  4.705069  0.068067
  N    -4.987923  1.570169  4.029171
  N    -4.926289  5.075163  3.928881
  S    -5.839867  1.117255  2.675297
  S    -5.675955  4.813358  2.487595
  S    -3.130537  1.526699 -0.280815
  S    -2.510206  5.180877 -0.285002
  S    -3.370138  1.768985  3.714299
  S    -3.348181  5.774313  3.800267
