16  
    
  C     2.944721  4.877656  3.674854
  C     2.880419  8.776312  3.400522
  C     1.636240  4.917870  3.065054
  C     1.644382  8.414324  2.686949
  N     3.941183  4.869015  2.793983
  N     3.971118  8.757221  2.637898
  N     1.633575  4.869861  1.738004
  N     1.877712  8.022376  1.437555
  N     1.277994  5.490803  5.465731
  N     1.083953  8.731280  5.309754
  S     0.312713  5.239034  4.158393
  S     0.204063  8.496307  3.885926
  S     3.210713  4.851825  1.317803
  S     3.499064  8.233105  1.194181
  S     2.914644  5.326607  5.344351
  S     2.802541  9.038571  5.079008
