16  
    
  C    -6.043757  0.792385  1.355400
  C    -6.096958  4.352598  1.755605
  C    -7.228938  0.129301  0.751087
  C    -7.199134  3.814549  1.022565
  N    -5.126815  1.219484  0.492386
  N    -5.074993  4.688658  1.038165
  N    -7.227691  0.165702 -0.577177
  N    -7.110988  3.892338 -0.286342
  N    -7.660820  0.262813  3.327899
  N    -7.761289  3.622327  3.534827
  S    -8.522585 -0.166862  1.951726
  S    -8.548199  3.474674  2.091085
  S    -5.824371  0.975539 -1.058033
  S    -5.534775  4.469559 -0.538818
  S    -6.146024  0.852896  3.123324
  S    -6.305550  4.471285  3.506612
