16  
    
  C    -4.400096  1.337412  1.906206
  C    -4.502239  4.837371  1.728601
  C    -5.603513  0.776458  1.351625
  C    -5.657362  4.336735  0.956766
  N    -3.520873  1.781673  1.030881
  N    -3.507603  5.310714  0.925478
  N    -5.613711  0.694147  0.016182
  N    -5.458153  4.335634 -0.376398
  N    -5.919045  0.862865  3.899204
  N    -6.487527  4.188531  3.429129
  S    -6.796964  0.439650  2.542675
  S    -7.016990  3.784239  1.858133
  S    -4.115452  1.471697 -0.487166
  S    -4.022981  5.028030 -0.631659
  S    -4.424747  1.539299  3.726884
  S    -4.933025  4.846096  3.442115
