16  
    
  C    -1.842356  2.476682  2.408798
  C    -1.716171  5.964146  2.374970
  C    -3.092711  2.362898  1.766910
  C    -2.890559  5.552823  1.686916
  N    -0.759849  2.609565  1.633586
  N    -0.612357  6.141265  1.710204
  N    -2.997638  2.280977  0.438636
  N    -2.672419  5.397561  0.410141
  N    -3.623494  2.358942  4.296610
  N    -3.647588  5.761774  4.110437
  S    -4.367288  2.019430  2.855543
  S    -4.325053  5.324804  2.631866
  S    -1.354811  2.374949  0.112106
  S    -1.119889  5.952942  0.101722
  S    -1.993055  2.540573  4.192145
  S    -2.008820  5.963373  4.058722
