16  
    
  C    -0.496628  3.211414  2.919729
  C    -1.137067  6.791054  2.753989
  C    -1.687890  2.816990  2.277059
  C    -2.215319  6.343064  1.850781
  N     0.582318  3.306519  2.130842
  N    -0.003761  6.981133  2.070022
  N    -1.581388  2.701099  0.951059
  N    -1.858602  6.063440  0.595824
  N    -2.340064  3.383618  4.700570
  N    -3.151144  6.223222  4.294198
  S    -3.080512  2.716222  3.368548
  S    -3.671791  5.906586  2.744755
  S     0.023279  2.919201  0.601911
  S    -0.279761  6.589193  0.454121
  S    -0.733318  3.759814  4.561869
  S    -1.612503  6.789059  4.455734
