16  
    
  C    -0.417137  3.266663  2.693688
  C    -0.310250  7.039885  2.503964
  C    -1.497042  2.533650  2.059965
  C    -1.528603  6.345769  1.960350
  N     0.705235  3.456172  1.951807
  N     0.700225  7.170243  1.631028
  N    -1.371621  2.519309  0.723373
  N    -1.362625  5.904885  0.717929
  N    -2.184041  2.999546  4.545968
  N    -2.053026  6.939549  4.339118
  S    -2.852628  2.361223  3.142694
  S    -2.695020  6.029280  3.092680
  S     0.232843  2.901903  0.426649
  S     0.095213  6.394520  0.240391
  S    -0.650893  3.663829  4.387614
  S    -0.491076  7.532263  4.139955
