16  
    
  C    -5.523080  0.908343  1.360708
  C    -5.015507  4.896197  1.378033
  C    -6.696585  0.445826  0.741150
  C    -6.154645  4.183450  0.837756
  N    -4.549286  1.242787  0.514270
  N    -4.248118  5.380126  0.402128
  N    -6.502271  0.303985 -0.578419
  N    -6.129249  4.075978 -0.482235
  N    -7.197775  0.460870  3.259982
  N    -6.627468  4.361974  3.259307
  S    -8.022504  0.134501  1.776698
  S    -7.424480  3.869718  1.902069
  S    -5.017663  0.849045 -0.992099
  S    -4.839317  4.931081 -1.083156
  S    -5.696416  1.214757  3.100138
  S    -5.284390  5.326259  2.993312
