16  
    
  C     2.946950  5.297583  3.945782
  C     2.576838  8.690417  3.170518
  C     1.694146  4.955897  3.318729
  C     1.338294  8.264056  2.582913
  N     3.965959  5.334168  3.104699
  N     3.551060  8.682910  2.223094
  N     1.796810  4.653558  2.038473
  N     1.334683  7.825918  1.313582
  N     1.207753  5.835315  5.694054
  N     0.855752  8.400715  5.086656
  S     0.394860  5.032762  4.477265
  S     0.039461  8.173166  3.710610
  S     3.418354  4.861606  1.688263
  S     2.886932  8.111602  0.815676
  S     2.832117  5.919020  5.536964
  S     2.436631  8.824358  4.903713
