16  
    
  C     2.199676  4.309048  3.007021
  C     2.039109  8.440669  3.116770
  C     1.023314  3.961321  2.255534
  C     0.936139  7.701380  2.610271
  N     3.234875  4.572159  2.208512
  N     3.002441  8.574030  2.237765
  N     1.287937  3.563020  0.972655
  N     1.121440  7.211034  1.393184
  N     0.268630  4.237694  4.810652
  N     0.211623  8.622076  4.917469
  S    -0.410875  3.900561  3.308787
  S    -0.469592  7.746918  3.646510
  S     2.838477  4.042117  0.706407
  S     2.584723  7.669178  0.862160
  S     1.990658  4.561640  4.747321
  S     1.781611  9.105679  4.693234
