16  
    
  C    -4.268752  1.630551  1.967801
  C    -4.476667  5.223143  1.693581
  C    -5.428848  1.132038  1.282515
  C    -5.690079  4.815892  1.137091
  N    -3.196481  1.752283  1.164708
  N    -3.439203  5.299123  0.830212
  N    -5.201937  0.628824  0.031003
  N    -5.682373  4.527475 -0.162624
  N    -6.185588  1.572441  3.723826
  N    -6.196454  5.236889  3.638646
  S    -6.833479  0.997467  2.318180
  S    -6.993948  4.675496  2.334937
  S    -3.575950  1.063152 -0.269444
  S    -4.140230  4.858677 -0.642394
  S    -4.604264  2.034526  3.639145
  S    -4.630805  5.537075  3.426404
