16  
    
  C    -1.578676  2.665626  2.360282
  C    -1.543497  6.352066  2.318760
  C    -2.678508  2.183409  1.607616
  C    -2.751089  5.934654  1.779034
  N    -0.464076  2.744777  1.668789
  N    -0.510029  6.463877  1.508004
  N    -2.500008  1.939237  0.304358
  N    -2.612615  5.649604  0.485423
  N    -3.476489  2.485789  4.058257
  N    -3.306590  6.236547  4.186370
  S    -4.054393  1.870301  2.626904
  S    -4.062903  5.668615  2.798037
  S    -0.837898  2.227725  0.128965
  S    -1.145798  6.158775  0.010027
  S    -1.897248  3.004392  4.051560
  S    -1.672302  6.577497  3.993004
