16  
    
  C     3.187261  5.169850  3.433005
  C     3.721546  9.068464  3.392403
  C     2.043952  4.605216  2.833599
  C     2.434415  8.574259  2.849711
  N     4.103353  5.508621  2.548092
  N     4.631471  9.236014  2.497753
  N     2.046170  4.518223  1.507407
  N     2.427267  8.313175  1.556969
  N     1.283689  5.139019  5.256382
  N     2.074052  8.858707  5.366756
  S     0.666545  4.348248  3.928358
  S     1.134412  8.445231  4.055748
  S     3.596977  5.082565  1.033952
  S     3.963324  8.884840  1.011968
  S     2.927629  5.443100  5.224316
  S     3.594013  9.475531  5.009594
