16  
    
  C     0.049314  3.662156  2.341128
  C     0.284358  7.472874  2.823681
  C    -1.227625  3.259261  1.779593
  C    -0.804922  6.801447  2.211358
  N     1.079914  3.702403  1.525749
  N     1.328814  7.637972  2.041465
  N    -1.156190  2.940719  0.522482
  N    -0.664805  6.589950  0.925392
  N    -1.657964  3.515491  4.290713
  N    -1.396313  7.325104  4.668915
  S    -2.535049  3.035023  2.928030
  S    -2.119661  6.609454  3.311223
  S     0.392831  3.332529  0.021854
  S     0.928717  7.113825  0.530699
  S    -0.105654  3.930219  4.093543
  S     0.115924  7.944230  4.445917
