16  
    
  C     0.825598  4.210818  2.446885
  C     1.544033  8.270589  3.245241
  C    -0.264202  3.389631  1.891281
  C     0.268344  8.077552  2.601313
  N     1.925821  4.265523  1.668611
  N     2.564670  8.442733  2.418477
  N    -0.136314  3.116218  0.597729
  N     0.319909  8.104374  1.282106
  N    -0.860373  3.809939  4.376137
  N    -0.267521  8.214947  5.129292
  S    -1.616931  3.119023  3.017802
  S    -1.055583  7.973352  3.679666
  S     1.361553  3.654957  0.178609
  S     1.857118  8.281727  0.848257
  S     0.703583  4.182025  4.157906
  S     1.421801  8.331651  4.949291
