16  
    
  C     0.199606  3.779638  2.852446
  C     0.330609  7.457011  2.743684
  C    -0.901553  3.087229  2.165666
  C    -0.972755  7.473247  2.156731
  N     1.264931  3.909872  2.080376
  N     1.300572  7.549117  1.820914
  N    -0.726427  2.976556  0.841327
  N    -0.989720  7.533879  0.828079
  N    -1.528718  3.031419  4.601117
  N    -1.375782  7.461577  4.750109
  S    -2.255473  2.761335  3.106450
  S    -2.246181  7.357440  3.336267
  S     0.793888  3.616794  0.492856
  S     0.646113  7.587914  0.309205
  S     0.020076  3.537610  4.603436
  S     0.281200  7.607129  4.513270
