16  
    
  C     2.973666  5.487661  3.916393
  C     2.385507  8.598341  3.202225
  C     1.740784  4.993841  3.332428
  C     1.198847  8.060440  2.576007
  N     4.009326  5.403184  3.104657
  N     3.428065  8.814682  2.397047
  N     1.866463  4.522139  2.110709
  N     1.399507  7.780700  1.289221
  N     1.111754  5.744749  5.749884
  N     0.793149  8.244206  5.144200
  S     0.394509  4.875853  4.479031
  S    -0.154777  8.105058  3.713401
  S     3.430358  4.811938  1.580771
  S     3.032842  8.135394  0.932376
  S     2.772094  5.877996  5.649272
  S     2.394399  8.801785  4.876054
