16  
    
  C     3.190989  5.194304  3.481563
  C     3.333969  8.927714  3.687888
  C     1.907384  4.771664  2.893948
  C     2.075362  8.771941  3.065376
  N     4.244741  4.970075  2.664505
  N     4.385322  8.739817  2.838444
  N     2.011032  4.541441  1.583577
  N     2.153682  8.540421  1.728996
  N     1.374454  5.103875  5.389111
  N     1.804292  9.065393  5.674293
  S     0.579316  4.716694  4.009018
  S     0.846953  9.142317  4.324371
  S     3.584671  4.655994  1.144665
  S     3.733520  8.325671  1.417602
  S     3.011687  5.319882  5.251649
  S     3.424895  9.241566  5.411776
