16  
    
  C     2.886331  5.329887  3.603013
  C     2.927618  8.813502  3.460778
  C     1.731974  4.881836  2.880182
  C     1.771344  8.323426  2.713316
  N     4.000246  5.388243  2.860570
  N     3.997741  9.035778  2.757589
  N     1.899149  4.875277  1.542727
  N     2.009143  8.103000  1.442541
  N     1.150527  4.691513  5.379838
  N     1.007011  8.654636  5.217308
  S     0.312522  4.816240  3.955482
  S     0.385725  8.074011  3.726092
  S     3.528477  5.181237  1.269475
  S     3.653956  8.534024  1.198236
  S     2.675381  5.323658  5.353286
  S     2.669482  8.799760  5.158534
