16  
    
  C     0.154269  3.378726  2.304222
  C     0.215831  7.351936  2.853856
  C    -1.082819  3.222683  1.662893
  C    -0.896604  6.692285  2.222315
  N     1.093676  3.807089  1.452863
  N     1.262032  7.549208  2.068662
  N    -1.018543  3.095111  0.313147
  N    -0.736350  6.480460  0.896786
  N    -1.480226  3.018775  4.217926
  N    -1.686627  7.235401  4.708843
  S    -2.357678  2.919275  2.833902
  S    -2.346361  6.569809  3.372180
  S     0.568923  3.477800 -0.069442
  S     0.812801  7.018739  0.583705
  S     0.127395  3.412410  4.061477
  S    -0.133616  7.779226  4.534986
