16  
    
  C     0.030180  3.629368  2.675769
  C     0.346706  7.417249  2.671459
  C    -1.018154  2.962314  1.980813
  C    -0.922061  7.200619  1.985924
  N     1.126145  3.769048  1.952449
  N     1.382676  7.600528  1.850813
  N    -0.805938  2.728287  0.696638
  N    -0.879305  7.293999  0.648267
  N    -1.708940  3.191369  4.496945
  N    -1.481199  7.262548  4.519301
  S    -2.329102  2.544358  3.116506
  S    -2.303914  7.189432  3.095669
  S     0.695350  3.373469  0.403463
  S     0.674385  7.462661  0.302836
  S    -0.194343  3.913054  4.401258
  S     0.178370  7.496009  4.427237
