16  
    
  C    -2.728386  2.648153  2.333074
  C    -2.726277  6.148374  1.975436
  C    -3.855262  2.020900  1.726984
  C    -3.823842  5.607774  1.176384
  N    -1.743875  2.987185  1.506030
  N    -1.721083  6.522444  1.227024
  N    -3.709084  1.750208  0.428169
  N    -3.657725  5.572029 -0.119094
  N    -4.393163  2.137486  4.216652
  N    -4.422839  5.483414  3.694150
  S    -5.064889  1.394751  2.916610
  S    -5.219547  5.255955  2.236711
  S    -2.261325  2.423246 -0.035270
  S    -2.075867  6.161810 -0.308204
  S    -2.891331  2.806679  4.033488
  S    -2.992036  6.273446  3.674559
