16  
    
  C     0.705846  3.945722  2.964954
  C     0.681232  7.591685  2.705926
  C    -0.524220  3.442896  2.309849
  C    -0.538268  6.906638  2.255233
  N     1.729568  4.018405  2.129666
  N     1.580451  7.802295  1.733864
  N    -0.425061  3.301914  1.015920
  N    -0.474253  6.450398  0.988355
  N    -1.036750  3.745424  4.811176
  N    -0.988587  7.392739  4.769484
  S    -1.794409  3.173032  3.438443
  S    -1.750300  6.661474  3.445382
  S     1.203121  3.446441  0.631173
  S     0.956887  7.098207  0.355641
  S     0.489137  4.300970  4.619337
  S     0.571116  7.965634  4.495241
