16  
    
  C     3.107111  5.163232  3.428307
  C     3.170281  8.798704  3.748062
  C     1.866781  4.729285  2.831294
  C     1.837522  8.534297  3.267948
  N     4.121558  5.142639  2.556668
  N     4.128430  8.561758  2.859892
  N     1.933549  4.516637  1.525919
  N     1.808294  8.219818  1.974173
  N     1.391415  5.026658  5.326873
  N     1.761115  9.379026  5.814536
  S     0.565627  4.553038  3.951054
  S     0.643603  9.005085  4.546065
  S     3.496868  4.678054  1.096075
  S     3.370359  8.247315  1.460566
  S     3.042535  5.251971  5.193891
  S     3.376717  9.378563  5.278354
