16  
    
  C     2.066522  4.686242  2.932417
  C     2.166869  8.540232  3.079938
  C     0.842580  4.241111  2.314862
  C     1.024270  7.985655  2.462979
  N     3.117923  4.658727  2.110088
  N     3.235355  8.725582  2.308646
  N     0.949563  4.097623  1.014703
  N     1.270846  7.733673  1.165922
  N     0.294340  4.421441  4.837093
  N     0.431464  8.489576  4.974644
  S    -0.398290  3.831752  3.447615
  S    -0.294684  7.808407  3.604188
  S     2.505988  4.429457  0.608531
  S     2.830170  8.062859  0.816450
  S     1.953355  4.813282  4.696080
  S     2.039686  8.925936  4.746683
