16  
    
  C    -3.204655  1.815188  1.974136
  C    -3.144049  5.699164  2.102062
  C    -4.383896  1.379002  1.268647
  C    -4.289652  5.120068  1.488935
  N    -2.057437  1.901354  1.267828
  N    -2.113198  5.945529  1.232189
  N    -4.204528  1.358192 -0.058933
  N    -4.177056  4.824960  0.191658
  N    -5.075313  1.628326  3.703559
  N    -4.831007  5.050843  4.060694
  S    -5.806034  1.239429  2.223317
  S    -5.582009  4.665553  2.649882
  S    -2.623779  1.682057 -0.324209
  S    -2.730652  5.456542 -0.281899
  S    -3.430902  1.983565  3.717166
  S    -3.385333  5.817739  3.813514
