16  
    
  C    -6.058809  0.954230  1.489277
  C    -6.137025  4.495001  1.821377
  C    -7.141488  0.200120  0.921702
  C    -7.336240  4.054548  1.034600
  N    -5.156828  1.305285  0.595012
  N    -5.062125  4.648508  1.073067
  N    -7.186151  0.091772 -0.405488
  N    -7.081026  4.032453 -0.265509
  N    -7.471531  0.172748  3.462931
  N    -8.076920  4.232050  3.496663
  S    -8.298532 -0.279776  2.165135
  S    -8.724116  3.750525  2.043202
  S    -5.720191  0.794036 -0.922365
  S    -5.454200  4.418299 -0.516358
  S    -6.084234  1.017096  3.191593
  S    -6.432008  4.481759  3.494398
