16  
    
  C    -3.370588  1.613570  2.100336
  C    -3.120287  5.427581  2.081443
  C    -4.661699  1.265375  1.457578
  C    -4.335452  4.948446  1.432818
  N    -2.380321  1.599327  1.218031
  N    -2.070979  5.600978  1.266038
  N    -4.635902  1.091666  0.131679
  N    -4.217334  4.833754  0.086349
  N    -5.058866  1.651751  3.960212
  N    -4.884917  5.127806  3.900933
  S    -5.960720  1.139284  2.668019
  S    -5.694409  4.914870  2.455528
  S    -3.021588  1.349687 -0.320319
  S    -2.680343  5.118175 -0.257539
  S    -3.402980  1.737329  3.854750
  S    -3.359062  5.727471  3.794092
