16  
    
  C    -1.822550  2.565977  2.061667
  C    -1.871973  6.416122  2.207016
  C    -3.085743  2.037002  1.506079
  C    -3.005983  5.625598  1.719201
  N    -0.791599  2.597548  1.211820
  N    -0.888183  6.649635  1.337607
  N    -2.946415  1.799212  0.201277
  N    -2.746874  5.178311  0.469621
  N    -3.453298  2.124971  4.032336
  N    -3.609194  6.210385  4.144721
  S    -4.336601  1.864999  2.660742
  S    -4.258105  5.308349  2.902037
  S    -1.379626  2.150412 -0.238455
  S    -1.339737  5.948881 -0.123614
  S    -1.886371  2.576661  3.819127
  S    -2.111502  6.855587  3.832925
