16  
    
  C    -0.751905  2.923898  2.513563
  C    -1.101064  6.470334  2.472712
  C    -2.039336  2.696217  1.835480
  C    -2.262292  5.920026  1.835246
  N     0.306244  2.988527  1.693033
  N    -0.018593  6.680481  1.706412
  N    -1.871104  2.376284  0.528237
  N    -2.091717  5.843028  0.520080
  N    -2.484962  2.756579  4.414825
  N    -2.943023  6.089221  4.311811
  S    -3.295602  2.414749  2.984841
  S    -3.639058  5.610787  2.874003
  S    -0.276598  2.765468  0.153847
  S    -0.508407  6.244254  0.166384
  S    -0.875590  3.275230  4.162406
  S    -1.340739  6.587766  4.235915
