16  
    
  C    -2.902924  2.265943  1.870716
  C    -2.777438  5.987962  1.987821
  C    -4.085117  1.863750  1.119839
  C    -4.044404  5.489063  1.487620
  N    -1.886668  2.701548  1.115324
  N    -1.732059  5.999077  1.158303
  N    -3.850709  1.692941 -0.182218
  N    -3.981363  5.203796  0.190852
  N    -4.753734  1.814746  3.602001
  N    -4.500767  5.796494  3.913580
  S    -5.436895  1.454679  2.139222
  S    -5.341760  5.183815  2.567177
  S    -2.351164  2.238908 -0.469959
  S    -2.450501  5.585688 -0.282109
  S    -3.171233  2.334492  3.655415
  S    -2.939440  6.168672  3.727487
