16  
    
  C    -3.303705  1.740056  2.030480
  C    -3.085448  5.474294  2.054303
  C    -4.628018  1.445357  1.447319
  C    -4.251866  4.894227  1.441659
  N    -2.391148  1.970303  1.098402
  N    -2.008064  5.668588  1.273208
  N    -4.624939  1.269082  0.105456
  N    -4.112912  4.724522  0.146049
  N    -4.920883  1.358278  4.082430
  N    -4.938734  5.184886  3.872437
  S    -5.832191  1.064216  2.710889
  S    -5.604137  4.613121  2.460613
  S    -3.136855  1.715466 -0.440537
  S    -2.509926  5.135121 -0.180654
  S    -3.310777  1.887009  3.842166
  S    -3.361272  5.770571  3.719086
