16  
    
  C     1.293279  4.464122  3.184224
  C     1.605428  7.951510  3.118225
  C    -0.083276  4.230700  2.634410
  C     0.346119  7.837768  2.443461
  N     2.248820  4.709727  2.258691
  N     2.656450  7.995414  2.275859
  N    -0.023736  3.988117  1.324413
  N     0.457690  7.634536  1.136709
  N    -0.272979  4.162810  5.170759
  N    -0.242211  8.162091  4.891537
  S    -1.283162  3.870277  3.937544
  S    -1.023568  8.215871  3.436961
  S     1.457810  4.406239  0.836137
  S     2.014464  7.718689  0.703048
  S     1.304157  4.652963  4.894018
  S     1.418382  8.214421  4.827585
