16  
    
  C    -5.325110  1.141640  1.401288
  C    -5.375073  4.634073  1.591087
  C    -6.552009  0.616135  0.815035
  C    -6.637977  4.202451  1.114463
  N    -4.311671  1.178098  0.540557
  N    -4.484139  4.744549  0.629456
  N    -6.388201  0.478453 -0.487962
  N    -6.715201  4.042257 -0.181933
  N    -7.086077  0.940405  3.255066
  N    -6.969263  4.372032  3.667934
  S    -7.897139  0.546491  1.909457
  S    -7.890424  4.229232  2.277011
  S    -4.881202  0.868493 -0.946722
  S    -5.204482  4.405686 -0.837384
  S    -5.475605  1.379839  3.120621
  S    -5.397676  4.808857  3.354644
