16  
    
  C    -4.829563  1.016894  1.694769
  C    -4.724227  4.713490  1.812709
  C    -5.955854  0.391265  1.063159
  C    -5.862774  4.056348  1.141963
  N    -3.806439  1.364216  0.921035
  N    -3.758162  5.106928  0.969273
  N    -5.842631  0.223686 -0.242541
  N    -5.704449  3.831297 -0.163378
  N    -6.780852  0.950216  3.511199
  N    -6.620570  4.558543  3.586991
  S    -7.315695  0.103789  2.127157
  S    -7.227808  3.894039  2.165756
  S    -4.333280  0.862292 -0.619297
  S    -4.249479  4.487785 -0.494723
  S    -5.216858  1.470176  3.358479
  S    -5.084171  5.167050  3.492769
