16  
    
  C    -5.295395  1.107765  1.388856
  C    -5.383048  4.630733  1.606860
  C    -6.501764  0.579015  0.818985
  C    -6.679378  4.238398  1.089188
  N    -4.282755  1.199307  0.555103
  N    -4.499039  4.740769  0.643019
  N    -6.387239  0.442572 -0.491370
  N    -6.717113  4.039794 -0.206013
  N    -7.107145  0.926596  3.280700
  N    -6.977475  4.305334  3.639628
  S    -7.896139  0.513265  1.894567
  S    -7.913732  4.247663  2.264218
  S    -4.896488  0.894724 -0.953104
  S    -5.205513  4.425822 -0.825558
  S    -5.484845  1.377078  3.087927
  S    -5.397231  4.839464  3.367554
