16  
    
  C    -1.687838  2.417050  2.433191
  C    -1.755070  6.180212  2.440046
  C    -2.894289  2.138010  1.725051
  C    -2.868666  5.640047  1.751386
  N    -0.680547  2.771983  1.630004
  N    -0.749538  6.412380  1.636753
  N    -2.790583  1.943916  0.413264
  N    -2.709368  5.489026  0.467066
  N    -3.552418  2.330059  4.196356
  N    -3.538681  5.709813  4.182142
  S    -4.342822  2.199900  2.745565
  S    -4.277447  5.386647  2.726039
  S    -1.170789  2.355073  0.089815
  S    -1.152657  5.887484  0.116687
  S    -1.944917  2.733204  4.094446
  S    -1.916180  6.219301  4.150115
