16  
    
  C    -3.761992  1.552753  1.832974
  C    -3.975708  5.510464  1.901546
  C    -5.069278  1.394916  1.138988
  C    -5.151516  5.235139  1.088755
  N    -2.799767  1.755494  0.947895
  N    -2.898910  5.794030  1.199689
  N    -5.002756  1.259493 -0.173003
  N    -4.962750  5.154299 -0.233861
  N    -5.498362  1.511413  3.657221
  N    -5.790123  4.636271  3.491112
  S    -6.351229  1.244428  2.254824
  S    -6.469174  4.693500  2.015737
  S    -3.455998  1.530840 -0.546422
  S    -3.399052  5.661680 -0.439380
  S    -3.845065  1.747879  3.504209
  S    -4.226266  5.243548  3.610607
