16  
    
  C     2.060730  4.597801  3.300037
  C     1.601305  7.774979  3.035309
  C     0.844966  3.996446  2.728106
  C     0.380435  7.533970  2.333230
  N     2.983119  4.943165  2.443798
  N     2.714907  7.928859  2.286594
  N     0.864499  4.019065  1.433161
  N     0.539414  7.442051  0.993517
  N     0.392514  4.052222  5.223227
  N    -0.258114  7.576971  4.868389
  S    -0.488875  3.660508  3.772724
  S    -1.042173  7.305227  3.402665
  S     2.424642  4.490551  0.881882
  S     2.205296  7.719215  0.754593
  S     1.898360  4.677170  5.021111
  S     1.384106  7.798638  4.746549
