16  
    
  C     0.942964  4.191621  2.725116
  C     1.585113  8.716302  3.021839
  C    -0.116526  3.510305  1.944677
  C     0.374512  8.201449  2.394328
  N     2.023977  4.436069  1.953030
  N     2.628369  8.891042  2.198063
  N     0.090993  3.639189  0.611858
  N     0.476401  7.995044  1.075947
  N    -0.956302  3.856726  4.409999
  N    -0.152357  8.375411  4.914372
  S    -1.485241  3.197066  2.957065
  S    -0.944143  8.011039  3.476358
  S     1.652358  4.103928  0.405233
  S     1.988516  8.424311  0.689626
  S     0.652776  4.399872  4.440853
  S     1.481380  8.841646  4.778533
