16  
    
  C    -1.606200  2.879134  2.038476
  C    -1.170312  6.790456  2.207422
  C    -2.543892  2.022977  1.379456
  C    -2.461106  6.497487  1.699019
  N    -0.517946  3.133647  1.276812
  N    -0.188239  6.813053  1.304247
  N    -2.396303  1.854199  0.037779
  N    -2.399851  6.220954  0.414671
  N    -3.339575  2.383788  3.863043
  N    -2.815037  6.943918  4.157150
  S    -3.876256  1.638058  2.451361
  S    -3.688764  6.329898  2.874281
  S    -0.836682  2.490229 -0.219769
  S    -0.883442  6.522772 -0.168455
  S    -1.873167  3.195737  3.714517
  S    -1.210274  7.120097  3.875991
