16  
    
  C    -1.181003  2.940567  2.286557
  C    -0.963936  7.022771  2.386127
  C    -2.479903  2.897093  1.701469
  C    -2.250238  6.646802  1.833808
  N    -0.179920  2.993435  1.404252
  N    -0.003224  7.075707  1.479248
  N    -2.488757  2.741865  0.381403
  N    -2.230251  6.403528  0.558394
  N    -2.885214  3.159137  4.244070
  N    -2.585444  6.672821  4.457730
  S    -3.765315  2.753945  2.883048
  S    -3.462530  6.563582  3.002893
  S    -0.908882  2.865473 -0.075209
  S    -0.679413  6.844095 -0.039691
  S    -1.235170  3.287684  3.979864
  S    -0.977782  6.977713  4.180891
