16  
    
  C    -5.983032  0.813377  1.512945
  C    -6.142079  4.416326  1.721605
  C    -7.139357  0.164852  0.947303
  C    -7.287252  4.070813  1.006389
  N    -5.104835  1.262948  0.593737
  N    -4.983004  4.646137  1.039313
  N    -7.040203  0.075357 -0.382640
  N    -7.064634  4.029796 -0.323712
  N    -7.469539  0.246452  3.505089
  N    -8.015930  4.144847  3.516560
  S    -8.328932 -0.214312  2.072400
  S    -8.726535  3.861663  2.029305
  S    -5.659919  0.812526 -0.843680
  S    -5.476634  4.458207 -0.534243
  S    -6.026565  1.086642  3.248772
  S    -6.438164  4.573348  3.394116
