16  
    
  C    -2.435692  2.254287  1.976988
  C    -2.554872  5.651185  2.089066
  C    -3.734668  1.950462  1.461201
  C    -3.735597  5.339205  1.331381
  N    -1.415653  2.008487  1.132090
  N    -1.427800  5.791892  1.419010
  N    -3.720345  1.603052  0.179020
  N    -3.491908  5.107955  0.043728
  N    -4.184638  2.224218  3.961762
  N    -4.386183  5.636052  3.870161
  S    -5.060643  2.093903  2.529590
  S    -5.075333  5.321664  2.371311
  S    -2.154122  1.595316 -0.304410
  S    -1.901777  5.388729 -0.180121
  S    -2.501049  2.318033  3.706986
  S    -2.758566  6.006517  3.807711
