16  
    
  C     1.964762  4.902111  3.050484
  C     2.337772  8.437238  3.156458
  C     0.810934  4.370598  2.325645
  C     1.109584  7.955437  2.465862
  N     2.969956  5.293824  2.222008
  N     3.321076  8.805807  2.355693
  N     1.083312  3.904962  1.069765
  N     1.210631  7.930724  1.158350
  N     0.164652  4.407898  4.946826
  N     0.486118  8.222577  4.991883
  S    -0.548815  4.158114  3.374263
  S    -0.233684  7.740115  3.585472
  S     2.526341  4.702239  0.688470
  S     2.831553  8.398031  0.777423
  S     1.716482  5.129716  4.794237
  S     2.086195  8.728997  4.848236
