16  
    
  C    -0.266997  3.103928  2.651919
  C    -0.314192  7.001134  2.386386
  C    -1.551131  2.739237  2.075128
  C    -1.344529  6.233174  1.910072
  N     0.584824  3.512994  1.692805
  N     0.682428  7.223121  1.519730
  N    -1.486986  2.477215  0.777659
  N    -1.218630  5.917181  0.633153
  N    -1.926746  2.888671  4.579585
  N    -1.968771  6.787704  4.286133
  S    -2.808469  2.520187  3.201924
  S    -2.620866  5.906167  2.994209
  S     0.038870  2.895325  0.259109
  S     0.185428  6.609875  0.125242
  S    -0.365892  3.331307  4.425185
  S    -0.451252  7.410105  4.071783
