16  
    
  C    -0.369790  3.358236  2.577889
  C    -0.323956  6.921847  2.361790
  C    -1.616921  3.035008  2.001936
  C    -1.571055  6.564175  1.811061
  N     0.598139  3.481554  1.693930
  N     0.574110  7.169964  1.389194
  N    -1.660450  3.039968  0.688842
  N    -1.650196  6.392435  0.500004
  N    -1.960195  3.200529  4.519969
  N    -1.950588  6.686438  4.350127
  S    -2.944555  2.945519  3.228485
  S    -2.809589  6.260381  2.960477
  S    -0.050474  3.184364  0.209827
  S    -0.101144  6.756552 -0.055342
  S    -0.405191  3.534387  4.278563
  S    -0.364545  7.127506  4.115513
