16  
    
  C    -4.174441  1.550120  1.847803
  C    -3.901290  5.151219  1.915745
  C    -5.397892  1.091613  1.325400
  C    -5.074939  4.515534  1.368655
  N    -3.203238  1.698911  0.948892
  N    -2.853502  5.261360  1.090906
  N    -5.276781  0.635614  0.058839
  N    -4.895750  4.069717  0.136436
  N    -5.869405  1.715601  3.856071
  N    -5.710954  5.365365  3.757034
  S    -6.647908  0.952403  2.585406
  S    -6.505657  4.687467  2.493106
  S    -3.808004  1.042429 -0.495344
  S    -3.389082  4.628639 -0.421861
  S    -4.234281  1.898789  3.666466
  S    -4.124459  5.722968  3.597689
