16  
    
  C    -4.001260  1.568360  1.697203
  C    -3.974528  5.176221  1.932600
  C    -5.300851  1.253322  1.031828
  C    -5.241942  5.030407  1.228941
  N    -2.960671  1.472609  0.919598
  N    -2.924771  5.486704  1.160416
  N    -5.166615  1.120525 -0.286388
  N    -5.167978  5.190267 -0.079572
  N    -5.739707  1.594672  3.481973
  N    -5.897476  4.942731  3.671699
  S    -6.586814  1.346485  2.092012
  S    -6.692841  4.859524  2.198716
  S    -3.591542  1.163739 -0.614848
  S    -3.590428  5.590211 -0.393225
  S    -4.059917  1.664476  3.416083
  S    -4.210613  5.167701  3.668480
