16  
    
  C     0.564263  3.722428  2.934597
  C     0.582468  7.513320  2.838812
  C    -0.785811  3.478185  2.404661
  C    -0.562607  7.127182  2.036648
  N     1.541130  3.839128  2.043941
  N     1.758340  7.676871  2.192370
  N    -0.772691  3.458377  1.099113
  N    -0.236275  6.834187  0.759372
  N    -1.129490  3.633026  4.918633
  N    -1.400740  7.272261  4.536698
  S    -2.034867  3.288757  3.623778
  S    -2.042606  6.964026  3.021152
  S     0.794278  3.487611  0.560732
  S     1.321459  7.257136  0.649154
  S     0.515048  3.982217  4.656457
  S     0.264316  7.697291  4.552507
