16  
    
  C     0.186766  3.692547  2.795383
  C     0.311675  7.478109  2.678542
  C    -0.872877  3.055154  2.137459
  C    -0.991992  7.408628  2.059251
  N     1.262429  3.973864  2.043582
  N     1.358248  7.467218  1.847190
  N    -0.706202  2.945264  0.850759
  N    -0.939627  7.490247  0.712906
  N    -1.541923  3.012769  4.585117
  N    -1.374905  7.442861  4.707072
  S    -2.304950  2.727164  3.097825
  S    -2.275178  7.328719  3.324272
  S     0.780016  3.554695  0.484077
  S     0.635004  7.611593  0.342402
  S    -0.034615  3.596502  4.555289
  S     0.245891  7.598039  4.481293
