16  
    
  C     2.038928  4.937292  3.198257
  C     2.015733  8.556827  3.283877
  C     0.890825  4.481774  2.438872
  C     0.772068  8.254072  2.616407
  N     3.077741  5.198097  2.433532
  N     3.092654  8.677932  2.520850
  N     1.091107  4.551245  1.139335
  N     0.974811  8.279249  1.274445
  N     0.147374  4.502434  4.830705
  N     0.333302  8.291710  5.148026
  S    -0.547690  4.189237  3.330455
  S    -0.491531  7.864994  3.781840
  S     2.646064  4.934254  0.853647
  S     2.566211  8.689532  0.988864
  S     1.669081  5.209266  4.930907
  S     1.900770  8.787433  4.978220
