16  
    
  C    -2.417212  2.255104  1.981807
  C    -2.522053  5.639321  2.078512
  C    -3.694116  1.935128  1.460584
  C    -3.747340  5.317656  1.336075
  N    -1.403590  1.990080  1.150117
  N    -1.431817  5.803711  1.394351
  N    -3.711894  1.612041  0.173988
  N    -3.521333  5.126973  0.035033
  N    -4.172096  2.216690  3.954282
  N    -4.398042  5.591477  3.883370
  S    -5.063831  2.097881  2.533035
  S    -5.071695  5.322148  2.382270
  S    -2.168017  1.582909 -0.304255
  S    -1.906314  5.383654 -0.192948
  S    -2.477311  2.323606  3.709954
  S    -2.766580  6.002944  3.813768
