16  
    
  C    -1.692618  2.311292  1.946056
  C    -1.838669  6.485263  2.120723
  C    -2.965960  1.966116  1.300756
  C    -2.963314  5.831997  1.408722
  N    -0.711686  2.419464  1.057380
  N    -0.764260  6.548018  1.350266
  N    -2.957399  2.054657 -0.024880
  N    -2.651316  5.380093  0.231660
  N    -3.454669  2.368287  3.804698
  N    -3.548522  6.089119  4.004057
  S    -4.312874  1.810265  2.487614
  S    -4.261777  5.527675  2.616535
  S    -1.348280  2.235890 -0.443157
  S    -1.049203  5.918652 -0.189001
  S    -1.812890  2.440854  3.631013
  S    -2.128347  6.958709  3.753137
