16  
    
  C    -4.258087  1.525219  2.038141
  C    -4.606161  5.206558  1.698463
  C    -5.428290  0.939087  1.329104
  C    -5.888715  4.728151  1.086372
  N    -3.238914  1.754449  1.215865
  N    -3.629834  5.422273  0.846873
  N    -5.184757  0.643721  0.074223
  N    -5.768824  4.434140 -0.217726
  N    -6.174031  1.527333  3.700375
  N    -6.269344  5.072332  3.669321
  S    -6.875935  0.926075  2.343755
  S    -7.173548  4.578817  2.280305
  S    -3.697767  1.213703 -0.268204
  S    -4.176929  4.826657 -0.601047
  S    -4.567796  1.971220  3.708041
  S    -4.620036  5.470462  3.398701
