16  
    
  C    -0.348076  3.259234  2.733799
  C    -0.293042  7.032278  2.567516
  C    -1.462787  2.552772  2.067606
  C    -1.448213  6.411738  1.857063
  N     0.614441  3.688972  1.893191
  N     0.792584  7.169999  1.810539
  N    -1.077616  2.138677  0.853251
  N    -1.244931  6.156542  0.567190
  N    -2.249908  3.049016  4.456115
  N    -2.183035  6.952083  4.232269
  S    -2.819870  2.307612  3.113563
  S    -2.874009  6.414417  2.784210
  S     0.413154  2.813996  0.522180
  S     0.348186  6.628417  0.286295
  S    -0.719525  3.727068  4.320779
  S    -0.566273  7.469483  4.175785
