16  
    
  C    -1.589601  2.728557  2.333489
  C    -1.527715  6.271707  2.365757
  C    -2.722764  2.124724  1.639870
  C    -2.792493  5.880610  1.730757
  N    -0.441495  2.757517  1.641582
  N    -0.503515  6.450684  1.544802
  N    -2.504103  1.990583  0.336574
  N    -2.695836  5.661727  0.457376
  N    -3.506799  2.495332  4.091597
  N    -3.355087  6.213515  4.171589
  S    -4.081852  1.919087  2.627399
  S    -4.082662  5.587844  2.828121
  S    -0.881039  2.206297  0.152804
  S    -1.149504  6.130461  0.040528
  S    -1.907151  2.966966  4.062301
  S    -1.719268  6.553194  4.009338
