16  
    
  C    -3.344757  1.666565  1.574589
  C    -3.742149  5.342029  1.654575
  C    -4.579473  1.142892  0.991670
  C    -5.013656  4.936784  1.057705
  N    -2.366017  1.871919  0.718917
  N    -2.794669  5.687734  0.765480
  N    -4.459245  0.862766 -0.295058
  N    -4.943928  4.845201 -0.252978
  N    -5.061448  1.457829  3.510097
  N    -5.561847  5.231606  3.531705
  S    -5.818783  0.943113  2.132555
  S    -6.338128  4.691167  2.213264
  S    -2.933813  1.385684 -0.760178
  S    -3.364933  5.260942 -0.744960
  S    -3.606388  2.158225  3.258409
  S    -3.938787  5.558717  3.327225
