16  
    
  C    -2.627320  2.623697  2.124840
  C    -2.462884  6.155484  2.137878
  C    -3.850802  2.107878  1.490577
  C    -3.584880  5.595599  1.421991
  N    -1.665445  2.799545  1.212713
  N    -1.399867  6.372682  1.342034
  N    -3.745348  1.772626  0.193206
  N    -3.420276  5.486564  0.127716
  N    -4.313677  2.483383  4.010596
  N    -4.451698  6.114612  3.718454
  S    -5.101935  1.872945  2.681387
  S    -5.018270  5.350006  2.380226
  S    -2.167723  2.172227 -0.215790
  S    -1.855405  6.101737 -0.211085
  S    -2.737666  2.860523  3.838387
  S    -2.895099  6.662490  3.689201
