16  
    
  C    -4.347149  1.460556  1.917802
  C    -4.575667  4.897817  1.702579
  C    -5.496654  0.833553  1.370753
  C    -5.652105  4.282276  0.971165
  N    -3.448510  1.779980  1.005076
  N    -3.576820  5.320013  0.923621
  N    -5.524008  0.812201  0.031775
  N    -5.548647  4.379123 -0.356631
  N    -5.967611  0.878586  4.006202
  N    -6.476719  4.449520  3.431279
  S    -6.819476  0.526517  2.616976
  S    -7.016942  3.816339  1.992575
  S    -4.132099  1.409223 -0.510829
  S    -4.000102  4.999387 -0.698831
  S    -4.459705  1.594349  3.668433
  S    -4.914374  4.940289  3.509428
