16  
    
  C    -1.799116  2.175945  2.081313
  C    -1.929489  6.146650  2.135938
  C    -3.066522  1.952636  1.374039
  C    -3.173185  5.790971  1.553473
  N    -0.788424  2.348155  1.208215
  N    -0.936721  6.065883  1.299356
  N    -2.968192  1.893226  0.036480
  N    -3.132302  5.437201  0.267841
  N    -3.777373  2.310921  3.802789
  N    -3.620284  5.660190  4.021499
  S    -4.471977  1.743777  2.385852
  S    -4.486957  5.661043  2.585908
  S    -1.380720  2.122768 -0.297215
  S    -1.545007  5.740451 -0.244567
  S    -2.110604  2.416495  3.727250
  S    -1.997586  6.082748  3.883076
