16  
    
  C     1.959694  4.930177  3.051131
  C     2.319095  8.436394  3.137717
  C     0.801120  4.382794  2.342612
  C     1.096500  7.944543  2.457099
  N     2.975857  5.314757  2.225191
  N     3.314897  8.823316  2.350989
  N     1.089501  3.917952  1.111151
  N     1.218873  7.925353  1.145853
  N     0.147344  4.432451  4.926881
  N     0.503248  8.213889  4.995301
  S    -0.541263  4.165007  3.370617
  S    -0.243360  7.739552  3.602348
  S     2.528814  4.713373  0.700392
  S     2.837229  8.419667  0.799478
  S     1.697762  5.135150  4.785142
  S     2.086483  8.708520  4.846869
