16  
    
  C    -4.149299  1.550851  1.916375
  C    -3.993972  5.189264  1.851360
  C    -5.364689  0.940314  1.392365
  C    -5.189557  4.637931  1.320266
  N    -3.203096  1.744061  1.018947
  N    -3.057128  5.372540  0.955164
  N    -5.255335  0.536199  0.146320
  N    -5.126536  4.190351  0.076419
  N    -5.898274  1.760375  3.688159
  N    -5.775549  5.260388  3.651393
  S    -6.680162  0.937022  2.491289
  S    -6.523826  4.575409  2.321429
  S    -3.839821  1.052311 -0.404458
  S    -3.611158  4.610337 -0.416637
  S    -4.307097  2.038562  3.512767
  S    -4.166647  5.667845  3.535502
