16  
    
  C    -3.574993  2.017540  1.656616
  C    -4.010758  5.229569  1.631692
  C    -4.817969  1.528179  1.089729
  C    -5.184941  4.716181  1.008921
  N    -2.569411  2.327093  0.872244
  N    -3.010930  5.395031  0.767809
  N    -4.724044  1.349491 -0.200616
  N    -5.051600  4.368050 -0.265845
  N    -5.127783  1.371810  3.568888
  N    -5.609076  5.046181  3.563907
  S    -6.005811  1.009187  2.195605
  S    -6.402372  4.414835  2.228520
  S    -3.191133  1.801169 -0.655267
  S    -3.528468  4.951852 -0.669128
  S    -3.648294  2.164506  3.411084
  S    -4.083293  5.553179  3.353325
