16  
    
  C     0.051553  3.605713  2.735424
  C     0.304129  7.329594  2.675887
  C    -0.997013  2.875402  2.049056
  C    -0.995551  7.285308  2.056685
  N     1.111103  3.873213  1.979827
  N     1.317022  7.561595  1.844291
  N    -0.803903  2.819268  0.722492
  N    -0.925117  7.349855  0.748420
  N    -1.615137  3.114573  4.565991
  N    -1.420612  7.334706  4.559380
  S    -2.322808  2.604834  3.090699
  S    -2.332924  7.228099  3.116936
  S     0.776974  3.422755  0.428730
  S     0.707952  7.533808  0.344066
  S    -0.155216  3.822909  4.435638
  S     0.226906  7.533521  4.372254
