16  
    
  C    -4.698136  1.004243  1.431151
  C    -4.825692  4.726304  1.705872
  C    -5.928793  0.805958  0.718082
  C    -6.080538  4.429546  1.027308
  N    -3.619292  1.064200  0.667114
  N    -3.706619  4.709215  0.962256
  N    -5.849329  0.715375 -0.632397
  N    -5.909404  4.317277 -0.290648
  N    -6.478312  0.766519  3.278427
  N    -6.581082  4.235777  3.586257
  S    -7.262918  0.704733  1.848109
  S    -7.426553  4.205893  2.183818
  S    -4.116098  0.949281 -0.925509
  S    -4.290644  4.554055 -0.584205
  S    -4.842368  0.973889  3.187634
  S    -4.989584  4.689299  3.441822
