16  
    
  C    -5.356328  1.147187  1.686611
  C    -5.116963  4.730425  1.397979
  C    -6.677139  0.805960  1.047964
  C    -6.360509  4.296050  0.767412
  N    -4.265642  1.048135  0.927494
  N    -4.073797  4.736196  0.576567
  N    -6.598812  0.667168 -0.238576
  N    -6.309119  4.068864 -0.536301
  N    -7.170727  0.989791  3.501309
  N    -7.005063  5.150969  3.095652
  S    -8.020947  0.665935  2.137643
  S    -7.773716  4.496450  1.769409
  S    -4.936501  0.776460 -0.616841
  S    -4.754299  4.378390 -0.914238
  S    -5.533398  1.308764  3.420478
  S    -5.316569  5.174974  3.095062
