16  
    
  C     2.133992  4.872689  3.173522
  C     2.018411  8.927465  3.383592
  C     0.904130  4.504204  2.486445
  C     0.822813  8.480551  2.713857
  N     3.061894  5.266059  2.337174
  N     3.059126  9.071164  2.579137
  N     0.972993  4.433696  1.161806
  N     0.973943  8.172384  1.405861
  N     0.404298  4.373874  4.971230
  N     0.240632  8.584095  5.273666
  S    -0.406292  4.095386  3.554316
  S    -0.536671  8.210993  3.793044
  S     2.552115  4.899115  0.805615
  S     2.526436  8.619684  1.071815
  S     2.071259  4.700475  4.925334
  S     1.855649  8.934594  5.142352
