16  
    
  C     3.065915  4.970106  3.381485
  C     3.051574  9.027674  3.776389
  C     1.853427  4.679434  2.659113
  C     1.728722  8.705744  3.257832
  N     4.161377  5.074524  2.636371
  N     3.998010  8.929676  2.876241
  N     1.995990  4.615276  1.359503
  N     1.721468  8.239880  2.017920
  N     1.262284  5.000779  5.182973
  N     1.530635  9.279278  5.765623
  S     0.480780  4.642115  3.791759
  S     0.514522  8.764328  4.606875
  S     3.678360  4.870736  1.059576
  S     3.306584  8.353386  1.492413
  S     2.885961  5.264669  5.086720
  S     3.121949  9.314395  5.449141
