16  
    
  C     0.403536  3.821359  3.005460
  C     1.024969  7.505783  2.695072
  C    -0.470596  2.955761  2.144099
  C    -0.154560  6.995295  1.996406
  N     1.517351  4.172351  2.366614
  N     1.924007  7.934043  1.841620
  N    -0.169957  3.040888  0.843295
  N    -0.035797  7.010737  0.667976
  N    -1.476713  3.118572  4.536199
  N    -0.689691  6.922138  4.496526
  S    -1.842835  2.531677  3.070159
  S    -1.383984  6.528880  3.060793
  S     1.307219  3.761073  0.794319
  S     1.378875  7.735965  0.254170
  S     0.084318  3.809202  4.725554
  S     0.829012  7.513208  4.410818
