16  
    
  C    -3.706099  1.979171  1.844492
  C    -3.627279  5.545207  1.832544
  C    -4.692925  1.059293  1.282391
  C    -4.846104  5.108749  1.237912
  N    -2.727303  2.338086  1.004178
  N    -2.620938  5.581279  0.989399
  N    -4.409696  0.753630  0.024048
  N    -4.798456  4.947749 -0.089407
  N    -5.455089  1.378063  3.768022
  N    -5.272967  5.479902  3.775365
  S    -5.935352  0.567138  2.416083
  S    -6.174594  4.948370  2.368730
  S    -2.984452  1.519189 -0.414045
  S    -3.200360  5.386964 -0.506696
  S    -4.089391  2.291987  3.523835
  S    -3.638862  5.759901  3.569999
