16  
    
  C    -1.464182  2.664282  2.266571
  C    -1.342405  6.736678  2.163996
  C    -2.523786  1.951987  1.524857
  C    -2.647451  6.201935  1.645674
  N    -0.513790  3.002960  1.433475
  N    -0.292360  6.731712  1.368462
  N    -2.266684  1.658447  0.263690
  N    -2.546908  5.834779  0.378121
  N    -3.404739  2.470286  3.915518
  N    -2.939486  6.288589  4.130943
  S    -3.924319  1.711274  2.521564
  S    -3.904075  6.154346  2.813159
  S    -0.817316  2.351002 -0.047380
  S    -1.009200  6.264260 -0.077128
  S    -1.842161  3.017480  3.914522
  S    -1.396544  6.886490  3.871844
