16  
    
  C     0.918147  3.881083  2.498536
  C     1.519256  8.084038  3.311269
  C    -0.294342  3.412242  1.900265
  C     0.274410  7.881317  2.683482
  N     1.950413  4.024748  1.681355
  N     2.516499  8.154227  2.460426
  N    -0.255829  3.266815  0.560125
  N     0.290758  7.875334  1.363037
  N    -0.866698  3.555851  4.442594
  N    -0.191688  7.926811  5.183036
  S    -1.633400  3.191180  3.019089
  S    -1.056698  7.932698  3.765658
  S     1.327579  3.692797  0.148397
  S     1.925132  8.042433  0.937666
  S     0.737974  4.156964  4.230499
  S     1.489288  8.071070  4.990114
