16  
    
  C    -0.899374  3.122009  2.469244
  C    -0.631009  6.632079  2.377060
  C    -2.194251  2.859317  1.818423
  C    -1.814222  6.178630  1.713123
  N     0.151158  3.018243  1.668100
  N     0.446944  6.737157  1.538398
  N    -2.116250  2.631354  0.523558
  N    -1.670257  6.046289  0.400267
  N    -2.693143  3.110915  4.292164
  N    -2.522621  6.399038  4.275347
  S    -3.503217  2.709410  2.929125
  S    -3.254958  6.068005  2.781824
  S    -0.502178  2.794897  0.125546
  S    -0.079092  6.262260 -0.001330
  S    -1.083164  3.397389  4.200587
  S    -0.888666  6.671349  4.146539
