16  
    
  C     2.981941  5.364189  3.341490
  C     3.312159  9.076180  3.394964
  C     1.930850  4.584761  2.779210
  C     2.016399  8.670941  2.884600
  N     4.076010  5.453103  2.575645
  N     4.333603  9.203972  2.535211
  N     2.096948  4.317353  1.464677
  N     2.059348  8.442752  1.550228
  N     1.273936  4.715550  5.201531
  N     1.893864  8.929485  5.397550
  S     0.563339  4.275822  3.787344
  S     0.863680  8.605989  4.160229
  S     3.648083  4.919682  1.083180
  S     3.741180  8.601471  1.108902
  S     2.726966  5.503106  5.075454
  S     3.457675  9.233864  5.097033
