16  
    
  C     0.575927  3.490601  2.699259
  C     0.608053  7.618531  2.652267
  C    -0.712924  3.425787  2.081480
  C    -0.522106  7.072278  2.028007
  N     1.591651  3.665342  1.887748
  N     1.591104  8.035185  1.843860
  N    -0.681090  3.293761  0.750808
  N    -0.408353  7.009892  0.693965
  N    -1.094104  3.259397  4.629181
  N    -0.949880  7.069687  4.647932
  S    -1.898893  2.927584  3.190926
  S    -1.734260  6.655842  3.219406
  S     0.899190  3.655329  0.364181
  S     1.037125  7.683924  0.294322
  S     0.503129  3.546546  4.521300
  S     0.574192  7.714659  4.375873
