16  
    
  C     1.981383  4.476385  3.275436
  C     1.568506  7.885362  3.064263
  C     0.740422  4.167635  2.644848
  C     0.375905  7.549236  2.332671
  N     3.042915  4.668841  2.484387
  N     2.629530  8.046132  2.289670
  N     0.863880  3.879111  1.346421
  N     0.529467  7.500131  1.036414
  N     0.407628  4.208653  5.176593
  N    -0.301308  7.617814  4.781755
  S    -0.380880  3.688073  3.816352
  S    -0.924548  7.129079  3.334430
  S     2.458647  4.420433  0.910886
  S     2.133155  7.755764  0.739671
  S     1.829762  4.890124  4.973501
  S     1.307489  8.015087  4.799453
