16  
    
  C    -1.830055  2.531643  2.488434
  C    -1.679682  5.823825  2.434000
  C    -3.096887  2.237292  1.789461
  C    -2.902411  5.552643  1.638122
  N    -0.791989  2.589333  1.661461
  N    -0.584962  6.104552  1.663402
  N    -2.995336  2.355000  0.466394
  N    -2.719416  5.497389  0.315102
  N    -3.647018  2.312832  4.306142
  N    -3.616790  5.713432  4.064139
  S    -4.432411  1.989972  2.887161
  S    -4.352914  5.307084  2.553604
  S    -1.396500  2.375841  0.134227
  S    -1.129887  5.919967  0.125797
  S    -1.990652  2.517920  4.181178
  S    -1.968940  5.964618  4.104866
