16  
    
  C     1.523609  4.306246  3.476322
  C     1.426249  8.002288  3.101835
  C     0.179050  4.142673  2.936344
  C     0.184136  7.709545  2.419667
  N     2.385528  4.444512  2.522818
  N     2.483816  7.991518  2.278647
  N     0.068942  4.026115  1.622954
  N     0.211032  7.640632  1.067166
  N    -0.085277  4.681225  5.424127
  N    -0.435005  7.857389  4.908794
  S    -0.984977  4.187007  4.162528
  S    -1.180467  7.447873  3.480133
  S     1.687861  4.173557  1.029201
  S     1.871231  7.874940  0.764448
  S     1.515914  4.827756  5.114719
  S     1.169796  8.191083  4.850988
