16  
    
  C    -2.382767  2.207783  2.003752
  C    -2.503258  5.651157  2.104485
  C    -3.685506  1.930352  1.448047
  C    -3.713585  5.293763  1.361495
  N    -1.394090  1.975348  1.158666
  N    -1.433881  5.802138  1.320486
  N    -3.710294  1.618704  0.162567
  N    -3.571804  5.154895  0.039624
  N    -4.139358  2.207661  3.933210
  N    -4.406523  5.531615  3.885065
  S    -5.059267  2.103382  2.540981
  S    -5.087424  5.314131  2.408350
  S    -2.172557  1.573257 -0.303949
  S    -1.907319  5.380659 -0.217715
  S    -2.450176  2.338223  3.725253
  S    -2.782079  5.989079  3.813997
