16  
    
  C    -1.796735  2.511685  2.027548
  C    -1.869349  6.478031  2.171503
  C    -3.064969  2.076883  1.474252
  C    -2.954132  5.596819  1.680592
  N    -0.783226  2.612990  1.188838
  N    -0.879658  6.659414  1.311634
  N    -2.951140  1.838234  0.191985
  N    -2.714009  5.141649  0.447315
  N    -3.440537  2.110280  4.019975
  N    -3.608110  6.209742  4.135955
  S    -4.345444  1.867783  2.652569
  S    -4.272270  5.322040  2.891135
  S    -1.392274  2.139069 -0.273256
  S    -1.332271  5.947451 -0.135468
  S    -1.872768  2.583724  3.792179
  S    -2.123511  6.888204  3.855874
