16  
    
  C     2.858875  5.215041  3.856973
  C     2.464112  8.490824  3.409839
  C     1.637650  4.689578  3.268998
  C     1.289239  7.946141  2.720883
  N     3.830648  5.415117  2.943762
  N     3.463976  8.761234  2.576337
  N     1.894145  4.106907  2.069914
  N     1.422120  7.881760  1.415581
  N     1.230766  5.124801  5.756774
  N     0.329201  8.514613  5.002662
  S     0.315374  4.733401  4.496824
  S    -0.111271  7.601602  3.647183
  S     3.351629  4.757345  1.544608
  S     2.964527  8.279975  1.080457
  S     2.769092  5.725824  5.523068
  S     1.978716  8.917831  5.130294
