16  
    
  C     3.079317  5.053679  3.366069
  C     3.096634  8.951550  3.908298
  C     1.856674  4.835120  2.594014
  C     1.871122  8.516425  3.325709
  N     4.145697  5.159468  2.571938
  N     3.969635  9.179472  2.937793
  N     2.083239  4.485886  1.300464
  N     1.831078  8.320735  2.037959
  N     1.122944  5.054526  5.088325
  N     1.303271  8.917040  5.772965
  S     0.454446  4.629053  3.609184
  S     0.492821  8.658105  4.374680
  S     3.644763  4.821010  0.965815
  S     3.281167  8.680958  1.453891
  S     2.771683  5.258619  5.097221
  S     2.879055  9.373115  5.678903
