16  
    
  C    -4.167839  1.400231  1.743004
  C    -4.137009  5.156989  1.983750
  C    -5.386623  1.204089  1.069807
  C    -5.426179  4.954577  1.338481
  N    -3.059870  1.297686  1.006997
  N    -3.101219  5.209804  1.151330
  N    -5.229445  1.150547 -0.236393
  N    -5.409372  4.751007  0.035666
  N    -6.074091  1.550082  3.526336
  N    -5.874864  5.266214  3.868604
  S    -6.838976  1.262694  2.090894
  S    -6.707566  4.974870  2.428319
  S    -3.598257  1.153496 -0.528523
  S    -3.813635  4.828983 -0.356416
  S    -4.437929  1.539850  3.498557
  S    -4.235027  5.327023  3.699070
