16  
    
  C     2.984421  5.161881  3.455758
  C     2.862268  8.732642  3.308219
  C     1.728329  4.784201  2.811474
  C     1.675979  8.196364  2.631767
  N     3.923916  5.611776  2.585770
  N     3.897254  9.125308  2.647410
  N     1.843750  4.644391  1.485884
  N     1.913626  8.201112  1.334811
  N     1.064496  5.107140  5.254351
  N     1.211964  8.314410  5.184986
  S     0.427551  4.353301  3.864286
  S     0.396998  7.778393  3.823447
  S     3.384428  5.217192  1.060868
  S     3.458843  8.910600  1.098995
  S     2.717560  5.368674  5.221002
  S     2.662581  9.023411  5.032774
