16  
    
  C    -2.769175  2.308626  1.967886
  C    -2.656284  5.809750  2.057528
  C    -4.032589  2.132175  1.200890
  C    -3.840466  5.316494  1.419182
  N    -1.684059  2.452442  1.218536
  N    -1.620551  5.897031  1.261214
  N    -3.803874  1.969274 -0.102683
  N    -3.728983  5.104762  0.084125
  N    -4.583878  1.885842  3.737582
  N    -4.432453  5.695959  3.915447
  S    -5.373393  1.638487  2.304836
  S    -5.236292  5.302114  2.519954
  S    -2.187329  2.112636 -0.360826
  S    -2.063585  5.431018 -0.217655
  S    -3.003056  2.413237  3.693379
  S    -2.904095  6.221366  3.734972
