16  
    
  C     3.016801  5.078789  3.286858
  C     3.090651  9.090436  3.902348
  C     1.816885  4.771801  2.566675
  C     1.845425  8.580329  3.351370
  N     4.114038  5.205950  2.538527
  N     4.069441  9.159792  2.970028
  N     2.030527  4.552636  1.288583
  N     1.798602  8.322513  2.035056
  N     1.104482  5.035162  5.095790
  N     1.225965  8.901774  5.787286
  S     0.458588  4.611059  3.637243
  S     0.483676  8.578280  4.315460
  S     3.667851  4.777784  0.995029
  S     3.316571  8.752393  1.469812
  S     2.761970  5.264102  5.025574
  S     2.837339  9.370953  5.642623
