16  
    
  C     0.387535  3.507092  2.920704
  C     0.369338  7.589104  2.838039
  C    -0.918258  3.332496  2.253971
  C    -0.964082  7.459195  2.309849
  N     1.453678  3.767322  2.137735
  N     1.306110  7.718025  1.933014
  N    -0.788942  3.523065  0.951106
  N    -0.979550  7.288827  1.000331
  N    -1.390391  3.110674  4.769744
  N    -1.173837  7.572183  4.901549
  S    -2.192112  2.899322  3.352186
  S    -2.144896  7.449760  3.562852
  S     0.806525  3.860066  0.615149
  S     0.624473  7.559087  0.412754
  S     0.275154  3.403527  4.651438
  S     0.479485  7.587656  4.559915
