16  
    
  C     0.191251  3.586219  2.309186
  C     0.194404  7.452161  2.863025
  C    -1.036119  3.169168  1.716704
  C    -0.912443  6.781638  2.237900
  N     1.224767  3.667494  1.452546
  N     1.248647  7.662638  2.130522
  N    -1.099113  3.256863  0.370622
  N    -0.632439  6.322804  1.019335
  N    -1.534228  3.240842  4.265730
  N    -1.565002  7.223445  4.725385
  S    -2.396505  2.984858  2.808018
  S    -2.270591  6.593507  3.307292
  S     0.455135  3.502636 -0.081228
  S     0.858350  6.993941  0.585481
  S     0.094255  3.477876  4.045157
  S    -0.038845  7.875173  4.538911
