16  
    
  C    -4.307892  1.686736  1.931324
  C    -4.348104  5.202753  1.742656
  C    -5.446905  1.124573  1.225601
  C    -5.690808  4.823547  1.178254
  N    -3.222673  1.732040  1.185478
  N    -3.384411  5.271002  0.842193
  N    -5.161988  0.673601  0.028318
  N    -5.659384  4.525860 -0.109802
  N    -6.112704  1.516672  3.659116
  N    -6.178465  5.186937  3.652672
  S    -6.842289  0.990986  2.284664
  S    -6.980912  4.659952  2.263593
  S    -3.619502  1.010205 -0.248974
  S    -4.124280  4.856858 -0.618134
  S    -4.536311  2.105663  3.651399
  S    -4.508679  5.597321  3.426675
