16  
    
  C    -1.766414  2.423245  2.044168
  C    -1.901146  6.514026  2.124890
  C    -3.017513  2.137090  1.445938
  C    -2.862580  5.558669  1.634561
  N    -0.775682  2.624381  1.162455
  N    -0.877644  6.705153  1.271209
  N    -2.978330  1.887297  0.134614
  N    -2.680084  5.119602  0.399742
  N    -3.431588  2.090450  3.999295
  N    -3.596677  6.189218  4.124630
  S    -4.349842  1.869834  2.635575
  S    -4.269207  5.355532  2.847417
  S    -1.410989  2.129043 -0.329034
  S    -1.325542  5.926859 -0.132554
  S    -1.844174  2.597056  3.747226
  S    -2.136897  6.941001  3.886777
