16  
    
  C    -3.789906  1.990604  1.894307
  C    -3.494188  5.387741  1.877691
  C    -4.726281  1.020033  1.279969
  C    -4.759317  5.004369  1.352685
  N    -2.754557  2.369071  1.176844
  N    -2.539129  5.603160  1.000813
  N    -4.440340  0.745088  0.027553
  N    -4.766142  4.763318  0.035020
  N    -5.416549  1.328548  3.672536
  N    -5.287727  5.424238  3.807137
  S    -5.928420  0.520505  2.326932
  S    -6.094445  4.966363  2.509446
  S    -3.065522  1.600915 -0.316142
  S    -3.243490  5.092317 -0.445734
  S    -4.165224  2.425553  3.538986
  S    -3.676459  5.769984  3.565175
