16  
    
  C     0.468797  3.746430  3.051562
  C     1.071194  7.489645  2.632347
  C    -0.520911  3.165752  2.206637
  C    -0.076993  6.995662  1.969213
  N     1.572435  4.160068  2.463983
  N     2.071523  7.962121  1.853906
  N    -0.159010  2.982495  0.922358
  N    -0.032066  6.950261  0.643484
  N    -1.405635  3.091513  4.593149
  N    -0.722839  6.928249  4.528602
  S    -1.862521  2.522060  3.103496
  S    -1.386471  6.547362  3.079518
  S     1.318865  3.843583  0.818465
  S     1.448951  7.634562  0.277758
  S     0.100186  3.815561  4.738074
  S     0.827630  7.552738  4.443615
