16  
    
  C    -1.725297  2.611967  2.415161
  C    -1.666512  6.230600  2.385231
  C    -2.837337  2.046318  1.685684
  C    -2.902502  5.778012  1.734457
  N    -0.644979  2.731560  1.630444
  N    -0.557060  6.335168  1.633373
  N    -2.642351  1.865263  0.366459
  N    -2.745631  5.483048  0.460173
  N    -3.557573  2.378595  4.191294
  N    -3.456534  5.799373  4.236221
  S    -4.260860  2.190418  2.698847
  S    -4.209467  5.394427  2.808677
  S    -1.080121  2.311430  0.101947
  S    -1.194787  5.981524  0.128382
  S    -1.930726  2.809200  4.106735
  S    -1.934662  6.350229  4.091445
