16  
    
  C    -5.448931  0.996645  1.302468
  C    -5.361693  5.076055  1.480072
  C    -6.606093  0.509781  0.591423
  C    -6.446431  4.480697  0.773162
  N    -4.461437  1.446204  0.500175
  N    -4.309242  5.416562  0.705554
  N    -6.421720  0.439423 -0.737242
  N    -6.223178  4.221961 -0.532864
  N    -7.303708  0.526244  3.129687
  N    -6.992797  4.238091  3.284308
  S    -7.907921  0.121112  1.638439
  S    -7.757688  3.964893  1.819115
  S    -4.936620  1.133154 -1.032268
  S    -4.718140  4.869389 -0.831677
  S    -5.712924  1.143629  2.996370
  S    -5.638881  5.214760  3.197242
