16  
    
  C     0.446929  3.755536  2.837870
  C     0.803268  7.648357  2.634318
  C    -0.600614  3.030137  2.087750
  C    -0.406982  7.141287  1.973760
  N     1.531416  3.951779  2.108016
  N     1.769919  8.038840  1.779813
  N    -0.293508  2.933265  0.781932
  N    -0.318256  7.251328  0.655268
  N    -1.365081  3.215344  4.554208
  N    -0.738554  6.787960  4.535442
  S    -1.970699  2.699313  3.022059
  S    -1.510017  6.505006  3.117531
  S     1.173546  3.632626  0.576379
  S     1.225402  7.842482  0.262763
  S     0.181920  3.725528  4.571969
  S     0.726499  7.509578  4.365569
