16  
    
  C    -1.569026  3.330607  2.009005
  C    -1.032095  6.997373  2.433352
  C    -2.542088  2.429958  1.402235
  C    -2.348942  6.826799  1.833631
  N    -0.550431  3.607429  1.177381
  N    -0.034139  7.064704  1.569289
  N    -2.314531  2.177920  0.097132
  N    -2.307938  6.606812  0.511678
  N    -3.212434  2.702798  3.874886
  N    -2.603489  6.604712  4.327233
  S    -3.879935  2.076737  2.452803
  S    -3.564708  6.665536  2.992676
  S    -0.957715  3.015951 -0.323361
  S    -0.681863  6.748055  0.105560
  S    -1.712962  3.419486  3.672363
  S    -1.009034  7.114038  4.151136
