16  
    
  C    -4.241254  1.642587  1.881298
  C    -4.206700  5.297012  1.714218
  C    -5.417403  0.919702  1.347010
  C    -5.398546  4.703818  1.221520
  N    -3.200467  1.641558  1.039940
  N    -3.158193  5.277702  0.888621
  N    -5.300374  0.565016  0.046590
  N    -5.235282  4.319242 -0.048564
  N    -6.016483  1.636543  3.802406
  N    -5.846511  5.114153  3.778024
  S    -6.746935  0.950396  2.431244
  S    -6.711982  4.587932  2.408929
  S    -3.671627  1.016357 -0.433929
  S    -3.697499  4.672467 -0.549358
  S    -4.405940  2.189680  3.549651
  S    -4.270958  5.623962  3.433369
