16  
    
  C     2.982862  5.286050  3.919214
  C     2.680279  8.625864  3.147725
  C     1.708660  4.903635  3.351572
  C     1.381790  8.278512  2.620048
  N     4.026228  5.264346  3.093923
  N     3.649382  8.534715  2.197574
  N     1.758468  4.714254  2.047679
  N     1.338224  7.987859  1.313708
  N     1.230895  5.768415  5.750344
  N     0.922546  8.658291  5.115136
  S     0.344916  5.202722  4.437079
  S     0.047282  8.170797  3.718785
  S     3.345488  4.820395  1.614024
  S     2.842069  8.152673  0.755657
  S     2.906709  5.897951  5.509158
  S     2.568800  8.945793  4.864552
