16  
    
  C     0.490809  3.609094  2.929204
  C     0.542482  7.518018  2.878305
  C    -0.847455  3.623778  2.391511
  C    -0.572016  7.003195  2.188168
  N     1.457241  3.714449  2.044196
  N     1.652223  7.681537  2.124013
  N    -0.887375  3.500744  1.078016
  N    -0.394975  6.842252  0.878048
  N    -1.106282  3.558418  4.968956
  N    -1.407139  7.260031  4.603510
  S    -2.013233  3.293089  3.574505
  S    -2.057973  7.055701  3.089121
  S     0.749136  3.780228  0.544636
  S     1.269407  7.217473  0.569744
  S     0.536417  3.729606  4.676522
  S     0.176361  7.737267  4.600483
