16  
    
  C     2.334291  4.858747  3.390261
  C     2.468446  8.670474  3.491881
  C     1.249634  4.196070  2.675620
  C     1.220203  8.327299  2.878900
  N     3.347348  5.153816  2.557587
  N     3.508419  8.721252  2.631556
  N     1.339520  4.224246  1.335593
  N     1.265563  8.240039  1.532449
  N     0.638370  4.247240  5.149991
  N     0.793804  8.704821  5.374268
  S    -0.128622  3.925469  3.721658
  S    -0.061813  8.086519  4.140558
  S     2.907123  4.702904  1.042210
  S     2.844626  8.628057  1.165240
  S     2.182488  4.732127  5.125023
  S     2.425883  8.962887  5.179742
