16  
    
  C     2.082859  4.530418  3.342321
  C     1.607007  7.717393  3.081992
  C     0.825096  4.093177  2.703169
  C     0.381411  7.478924  2.342291
  N     2.965708  4.986577  2.457274
  N     2.662702  7.934777  2.296717
  N     0.881735  3.956521  1.387543
  N     0.580762  7.450208  1.028274
  N     0.385855  4.037115  5.191256
  N    -0.231721  7.565296  4.842153
  S    -0.489776  3.665898  3.798971
  S    -1.025156  7.342153  3.401508
  S     2.407804  4.518673  0.894188
  S     2.190771  7.716028  0.735774
  S     1.895718  4.619248  5.031227
  S     1.395031  7.764267  4.742393
