16  
    
  C     0.651316  3.789241  3.003657
  C     0.703564  7.526097  2.853987
  C    -0.665742  3.332514  2.472670
  C    -0.481590  7.035320  2.137565
  N     1.549578  4.107592  2.050167
  N     1.748752  7.576352  2.041894
  N    -0.518452  2.897985  1.207551
  N    -0.306362  6.861175  0.856681
  N    -1.133832  3.992776  4.872017
  N    -1.196789  7.147797  4.634882
  S    -1.994787  3.296085  3.553896
  S    -1.869194  6.836505  3.119559
  S     1.044280  3.304478  0.691809
  S     1.334414  7.221680  0.466487
  S     0.455730  4.263281  4.619451
  S     0.329424  7.798773  4.530836
