16  
    
  C    -0.225076  3.060999  2.636059
  C    -0.186289  7.022618  2.395564
  C    -1.532166  2.709365  2.059110
  C    -1.295660  6.276275  1.742412
  N     0.707168  3.305269  1.722589
  N     0.702198  7.369048  1.464290
  N    -1.438601  2.437810  0.769975
  N    -1.110400  6.125843  0.434384
  N    -1.846471  2.907979  4.580636
  N    -1.949766  6.596870  4.271761
  S    -2.771190  2.402018  3.292655
  S    -2.607817  5.953432  2.865791
  S     0.059549  2.996873  0.257682
  S     0.372549  6.752513 -0.000082
  S    -0.332879  3.341955  4.280927
  S    -0.448853  7.205942  4.103036
