16  
    
  C    -1.745546  2.303463  1.888976
  C    -1.805086  6.378079  2.056525
  C    -2.983813  1.957705  1.298908
  C    -2.951349  5.811992  1.439587
  N    -0.688107  2.469307  1.096927
  N    -0.699357  6.515569  1.333372
  N    -2.919976  2.018438 -0.038455
  N    -2.714702  5.500887  0.111547
  N    -3.480100  2.350688  3.762382
  N    -3.585903  6.158096  3.976747
  S    -4.298204  1.840455  2.446506
  S    -4.208871  5.552715  2.579613
  S    -1.327978  2.217987 -0.442399
  S    -1.067806  5.907651 -0.150879
  S    -1.831252  2.403628  3.667006
  S    -2.127268  6.902193  3.780908
