16  
    
  C    -2.575786  2.316428  2.254226
  C    -2.722966  5.751639  2.050784
  C    -3.758952  1.899082  1.572259
  C    -3.896396  5.227363  1.433912
  N    -1.594740  2.724843  1.452363
  N    -1.652218  6.065055  1.266539
  N    -3.628319  1.820070  0.265752
  N    -3.718106  5.221572  0.101496
  N    -4.258609  1.915011  4.088627
  N    -4.450673  5.357255  3.941898
  S    -5.055927  1.628271  2.670373
  S    -5.249630  4.909705  2.538727
  S    -2.067510  2.383297 -0.045468
  S    -2.182102  5.694359 -0.302873
  S    -2.682740  2.413296  3.990462
  S    -2.823109  5.714193  3.763305
