16  
    
  C    -3.319842  1.727165  2.013644
  C    -3.082915  5.502742  2.057866
  C    -4.630742  1.362865  1.466237
  C    -4.265462  4.918153  1.436391
  N    -2.347482  1.926063  1.103425
  N    -1.976742  5.636332  1.307211
  N    -4.647687  1.272972  0.129937
  N    -4.079023  4.718404  0.111500
  N    -4.925976  1.387886  4.059713
  N    -4.896590  5.172552  3.893622
  S    -5.834997  1.079054  2.719923
  S    -5.627280  4.656525  2.481157
  S    -3.142374  1.688710 -0.430692
  S    -2.529329  5.145361 -0.194864
  S    -3.327799  1.869152  3.835432
  S    -3.387255  5.748464  3.693553
