16  
    
  C    -4.314321  1.475402  2.041230
  C    -4.661846  5.227768  1.683155
  C    -5.466655  0.964810  1.375501
  C    -5.854996  4.688528  1.140485
  N    -3.302192  1.754760  1.229236
  N    -3.638920  5.380062  0.843148
  N    -5.307056  0.627222  0.089345
  N    -5.743111  4.384896 -0.137072
  N    -6.123186  1.458677  3.754934
  N    -6.233187  4.900197  3.575015
  S    -6.855996  0.862348  2.319098
  S    -7.170313  4.528704  2.247957
  S    -3.736600  1.257836 -0.271620
  S    -4.241933  4.830109 -0.582558
  S    -4.521457  1.969286  3.732214
  S    -4.685790  5.436873  3.389719
