16  
    
  C     1.621711  4.445860  3.418436
  C     1.375764  8.028186  3.030973
  C     0.324206  4.307974  2.855519
  C     0.238790  7.396876  2.386928
  N     2.615598  4.409390  2.578563
  N     2.375960  8.419072  2.232249
  N     0.338540  3.864568  1.616877
  N     0.353962  7.298933  1.048437
  N    -0.015029  4.621087  5.309878
  N    -0.351486  7.655050  4.888963
  S    -0.896604  4.248713  4.023034
  S    -1.087495  7.151378  3.494692
  S     1.983160  4.024984  1.069071
  S     1.910192  7.966557  0.744120
  S     1.610839  4.872323  5.107580
  S     1.175503  8.209315  4.768926
