16  
    
  C     2.964717  5.173837  3.384381
  C     2.843541  8.816153  3.391520
  C     1.768615  4.680963  2.773490
  C     1.677555  8.323903  2.682118
  N     3.878450  5.624803  2.540889
  N     3.922495  9.123967  2.619584
  N     1.841243  4.627964  1.460541
  N     1.860588  8.223375  1.350087
  N     1.127359  5.031606  5.278848
  N     1.199675  8.284871  5.233578
  S     0.426520  4.320725  3.916273
  S     0.410222  7.735512  3.821491
  S     3.390069  5.173648  1.005859
  S     3.438076  8.949729  1.058546
  S     2.703687  5.390276  5.153831
  S     2.668647  9.058519  4.999685
