16  
    
  C    -1.965025  2.525221  2.629675
  C    -1.709427  5.822431  2.330239
  C    -3.068497  1.969092  1.941367
  C    -2.942765  5.672148  1.648100
  N    -0.867593  2.713587  1.869262
  N    -0.673723  6.121556  1.474759
  N    -2.881122  1.792785  0.631167
  N    -2.905666  5.659174  0.293281
  N    -3.725171  2.096784  4.404215
  N    -3.539875  5.670675  4.187629
  S    -4.466144  1.811143  2.931113
  S    -4.278841  5.425097  2.721803
  S    -1.365139  2.349422  0.302600
  S    -1.314372  5.912744 -0.018347
  S    -2.106642  2.400558  4.387322
  S    -1.855905  5.794002  4.069338
