16  
    
  C     2.908869  5.204789  3.721527
  C     2.867143  8.761860  3.267319
  C     1.590909  5.272317  3.109538
  C     1.564731  8.378368  2.758594
  N     3.921465  5.009065  2.885710
  N     3.813706  8.775550  2.315487
  N     1.597149  4.740418  1.878057
  N     1.556924  8.012876  1.472645
  N     1.371731  5.466071  5.657694
  N     1.054848  8.891405  5.174891
  S     0.359638  5.402566  4.370137
  S     0.242500  8.448904  3.759358
  S     3.183036  4.641280  1.400083
  S     3.079559  8.111443  0.900391
  S     3.007231  5.494891  5.398262
  S     2.738941  9.105078  5.029795
