16  
    
  C    -1.856426  2.323364  2.636851
  C    -1.767204  5.881159  2.354495
  C    -3.033032  1.949847  1.951681
  C    -2.963522  5.677760  1.631659
  N    -0.900862  2.772234  1.816919
  N    -0.677137  5.939930  1.596204
  N    -2.968145  1.878926  0.609010
  N    -2.803771  5.771007  0.306214
  N    -3.724368  2.083151  4.400316
  N    -3.511265  5.592576  4.070500
  S    -4.504856  1.934699  2.928953
  S    -4.344304  5.356368  2.632733
  S    -1.400051  2.421374  0.274386
  S    -1.160470  5.863785  0.003652
  S    -2.087380  2.415704  4.328846
  S    -1.864403  5.827726  4.055592
