16  
    
  C    -4.494229  0.957666  1.690963
  C    -4.779838  4.527549  1.529396
  C    -5.745656  0.613019  1.006833
  C    -5.957137  4.216773  0.789238
  N    -3.445735  1.199889  0.890809
  N    -3.700685  4.970487  0.833343
  N    -5.702722  0.766835 -0.310781
  N    -5.828851  4.482635 -0.524184
  N    -6.279605  0.661726  3.639342
  N    -6.643260  4.294109  3.355509
  S    -7.085691  0.506069  2.167027
  S    -7.365286  3.920080  1.950075
  S    -4.040842  1.281913 -0.655268
  S    -4.251837  4.973252 -0.724567
  S    -4.640030  1.048415  3.461015
  S    -4.995788  4.447684  3.302263
