16  
    
  C    -0.096530  3.735766  2.444192
  C     0.324831  7.446557  2.704278
  C    -1.203048  2.951704  1.964717
  C    -0.908291  7.058884  2.008214
  N     0.982999  3.793626  1.676722
  N     1.375165  7.670475  1.907486
  N    -0.977855  2.595922  0.688418
  N    -0.731357  6.822742  0.703422
  N    -1.772028  3.478348  4.411105
  N    -1.457101  7.254327  4.602828
  S    -2.527529  2.791377  3.077908
  S    -2.209623  6.854419  3.174901
  S     0.509308  3.201395  0.219426
  S     0.843348  7.230808  0.390517
  S    -0.205978  4.059314  4.142967
  S     0.183347  7.632739  4.456588
