16  
    
  C    -4.575768  1.161444  1.567171
  C    -4.828266  4.674895  1.663233
  C    -5.841740  0.874269  0.901833
  C    -6.046889  4.429710  0.968193
  N    -3.541981  1.204668  0.730693
  N    -3.812066  4.861718  0.834446
  N    -5.816294  0.870634 -0.403404
  N    -5.998278  4.428620 -0.357897
  N    -6.419953  0.730922  3.361112
  N    -6.603062  4.153840  3.421085
  S    -7.243828  0.621250  1.859465
  S    -7.401286  4.126456  1.954161
  S    -4.144115  0.926002 -0.801997
  S    -4.388194  4.604230 -0.706321
  S    -4.713180  0.913005  3.215760
  S    -4.965655  4.570223  3.437614
