16  
    
  C    -4.415749  1.587083  1.952308
  C    -4.644382  5.058028  1.723172
  C    -5.593172  1.075322  1.352723
  C    -5.799017  4.458951  1.085334
  N    -3.398827  1.786166  1.112943
  N    -3.668708  5.315792  0.846163
  N    -5.488892  0.803624  0.068343
  N    -5.695183  4.356241 -0.249236
  N    -6.020091  1.150727  3.928937
  N    -6.354843  4.671664  3.552969
  S    -6.833233  0.668844  2.543298
  S    -7.126659  4.143124  2.206121
  S    -3.907814  1.241438 -0.415220
  S    -4.145077  4.859645 -0.674257
  S    -4.459627  1.804351  3.702223
  S    -4.824604  5.290868  3.462795
