16  
    
  C    -5.602693  0.805045  1.528146
  C    -5.603765  4.686574  1.219337
  C    -6.821566  0.368838  0.841729
  C    -6.794214  4.152037  0.709039
  N    -4.555593  0.862903  0.728469
  N    -4.607166  4.910170  0.347706
  N    -6.655601  0.301916 -0.486492
  N    -6.813884  4.091342 -0.609985
  N    -7.414464  0.514368  3.314662
  N    -7.339448  4.363276  3.247407
  S    -8.214105  0.304904  1.879131
  S    -8.155626  4.031281  1.856525
  S    -5.060318  0.575131 -0.818542
  S    -5.343632  4.607065 -1.148603
  S    -5.879364  1.119366  3.308603
  S    -5.806380  4.944156  2.993094
