16  
    
  C     1.658217  4.435114  3.452464
  C     1.421933  7.950234  3.072649
  C     0.318952  4.275442  2.888052
  C     0.205156  7.474480  2.371500
  N     2.606704  4.341029  2.503502
  N     2.427597  8.334026  2.283271
  N     0.307585  3.940958  1.602761
  N     0.319620  7.417218  1.044603
  N    -0.034060  4.663562  5.373241
  N    -0.391727  7.701846  4.888126
  S    -1.012225  4.211913  4.081224
  S    -1.153383  7.210417  3.501018
  S     1.873995  4.057368  1.078736
  S     1.875784  7.953547  0.772238
  S     1.580179  4.873679  5.114498
  S     1.199174  8.221998  4.753216
