16  
    
  C    -2.965898  2.245998  1.840246
  C    -2.932133  5.856759  2.003394
  C    -3.987560  1.562042  1.142075
  C    -4.167712  5.423706  1.432655
  N    -1.956949  2.594402  1.030834
  N    -1.975733  6.130943  1.137436
  N    -3.903451  1.568447 -0.193349
  N    -4.100668  5.301136  0.097240
  N    -4.822733  1.715630  3.616637
  N    -4.581024  5.787788  3.987395
  S    -5.480320  1.387568  2.106797
  S    -5.345471  5.219739  2.636105
  S    -2.397268  2.314220 -0.535808
  S    -2.524010  5.654837 -0.357800
  S    -3.265320  2.319798  3.544993
  S    -2.939911  6.138243  3.733451
