16  
    
  C     1.932443  4.378091  3.366557
  C     1.658937  7.755815  3.023971
  C     0.675105  4.037902  2.722429
  C     0.368170  7.565622  2.354357
  N     2.992478  4.399888  2.560400
  N     2.683931  7.963055  2.224921
  N     0.722722  4.139320  1.410185
  N     0.496479  7.675531  1.028613
  N     0.143758  3.965080  5.270613
  N    -0.002413  7.423213  4.970439
  S    -0.538815  3.711083  3.773307
  S    -0.852133  7.183541  3.526603
  S     2.335362  4.493044  0.989151
  S     2.132437  7.824741  0.692401
  S     1.817961  4.295487  5.118493
  S     1.637594  7.648436  4.747653
