16  
    
  C     3.097388  5.138469  3.401716
  C     3.371641  9.079207  3.474701
  C     1.961226  4.573985  2.757694
  C     2.090782  8.715533  2.989860
  N     4.074999  5.539261  2.593988
  N     4.349342  9.074158  2.527275
  N     2.171739  4.279560  1.458802
  N     2.109560  8.436297  1.656257
  N     1.166354  4.936909  5.119099
  N     1.637849  8.812292  5.517286
  S     0.618024  4.182904  3.713900
  S     0.818280  8.611681  4.064400
  S     3.599457  4.946300  1.116033
  S     3.582162  8.660090  1.102799
  S     2.764618  5.444884  5.110575
  S     3.283590  9.276217  5.267417
