16  
    
  C    -2.622155  2.685607  2.020883
  C    -2.439361  6.139724  2.127916
  C    -3.812577  2.073193  1.505420
  C    -3.569977  5.661010  1.404684
  N    -1.605057  2.747482  1.166893
  N    -1.370528  6.292989  1.407079
  N    -3.750174  1.866979  0.197659
  N    -3.373374  5.376567  0.115264
  N    -4.318605  2.491819  4.005755
  N    -4.426248  6.085452  3.781538
  S    -5.094615  1.892687  2.638249
  S    -4.939875  5.360726  2.384839
  S    -2.169061  2.140756 -0.231366
  S    -1.868813  6.046878 -0.197921
  S    -2.695213  2.870914  3.808943
  S    -2.884205  6.655786  3.727950
