16  
    
  C     0.055957  3.527608  2.315388
  C     0.312151  7.578024  2.783411
  C    -1.207850  3.130730  1.709457
  C    -0.819240  6.922187  2.184598
  N     1.100078  3.649365  1.509328
  N     1.395890  7.759605  2.010802
  N    -1.157326  3.283055  0.368000
  N    -0.563441  6.446683  0.968425
  N    -1.657537  3.496229  4.302586
  N    -1.490850  7.233211  4.752709
  S    -2.472867  3.051189  2.913485
  S    -2.156616  6.595705  3.377314
  S     0.433535  3.426506 -0.015986
  S     0.918611  6.965299  0.519083
  S    -0.002075  3.801492  4.052338
  S     0.017312  7.944745  4.536277
