16  
    
  C    -2.780939  2.339834  1.973473
  C    -2.669201  5.809890  2.044172
  C    -4.042926  2.143182  1.185915
  C    -3.862213  5.294299  1.389185
  N    -1.693392  2.470818  1.224553
  N    -1.630917  5.916720  1.259581
  N    -3.801987  1.963915 -0.108431
  N    -3.751030  5.122893  0.076856
  N    -4.587717  1.886289  3.722494
  N    -4.426389  5.700957  3.926414
  S    -5.377529  1.618058  2.299453
  S    -5.230865  5.300008  2.526871
  S    -2.199849  2.117944 -0.356387
  S    -2.086613  5.431104 -0.229459
  S    -3.017296  2.401666  3.673048
  S    -2.915332  6.225698  3.753655
