16  
    
  C    -3.583283  2.031473  1.630340
  C    -3.985474  5.233319  1.645850
  C    -4.796484  1.505978  1.094992
  C    -5.186801  4.720428  1.021559
  N    -2.561532  2.306349  0.849314
  N    -3.009718  5.393736  0.752598
  N    -4.717181  1.344239 -0.200579
  N    -5.064229  4.387141 -0.256440
  N    -5.128261  1.404013  3.553091
  N    -5.613091  5.031814  3.560725
  S    -5.996475  0.997524  2.194414
  S    -6.410084  4.418495  2.240369
  S    -3.177816  1.790039 -0.663928
  S    -3.527903  4.938085 -0.689732
  S    -3.650302  2.158223  3.401416
  S    -4.072845  5.560398  3.347755
