16  
    
  C     0.913805  3.881654  2.508926
  C     1.584731  7.950605  3.301709
  C    -0.341840  3.516201  1.906158
  C     0.269045  7.907228  2.651633
  N     1.984484  3.998909  1.737797
  N     2.621164  8.043569  2.457270
  N    -0.189033  3.339219  0.594953
  N     0.316609  7.838360  1.317536
  N    -0.828548  3.557955  4.380890
  N    -0.186303  7.843549  5.176145
  S    -1.633088  3.181179  2.982375
  S    -1.070532  7.859871  3.789907
  S     1.360898  3.716314  0.200007
  S     1.878121  7.941879  0.909968
  S     0.703343  4.074011  4.219144
  S     1.454345  8.041731  5.050152
