16  
    
  C     0.090485  3.351125  2.421322
  C    -0.037045  7.186345  2.697799
  C    -1.100670  2.954151  1.769781
  C    -1.187420  6.709833  2.047756
  N     1.140894  3.521550  1.664219
  N     1.036820  7.461672  1.934688
  N    -0.937036  2.856073  0.463405
  N    -1.062943  6.728514  0.703511
  N    -1.679023  2.944237  4.239744
  N    -1.758945  6.798889  4.618721
  S    -2.368754  2.378283  2.825408
  S    -2.543867  6.475316  3.161530
  S     0.609838  3.343690  0.098911
  S     0.541464  7.095222  0.435127
  S    -0.134845  3.494655  4.172398
  S    -0.164378  7.290216  4.461078
