16  
    
  C    -1.237024  3.481289  2.135201
  C    -1.066997  7.101321  2.649423
  C    -2.380978  2.706752  1.618442
  C    -2.349844  6.904170  1.974187
  N    -0.323085  3.642967  1.200228
  N    -0.039954  7.252221  1.809598
  N    -2.361331  2.562940  0.309237
  N    -2.325453  6.706775  0.658583
  N    -2.746851  2.917505  4.156169
  N    -2.757334  6.602519  4.452153
  S    -3.588196  2.368868  2.808213
  S    -3.653192  6.664478  3.068158
  S    -0.977718  3.210078 -0.251311
  S    -0.700310  6.873042  0.315551
  S    -1.183813  3.471442  3.838557
  S    -1.189376  6.997855  4.351038
