16  
    
  C     2.960818  5.324860  3.339445
  C     3.342609  9.116780  3.346862
  C     1.893781  4.591802  2.702997
  C     2.061624  8.662691  2.842114
  N     4.053771  5.475495  2.546284
  N     4.351412  9.155925  2.515797
  N     2.103239  4.367592  1.429196
  N     2.154989  8.416755  1.574016
  N     1.309110  4.689267  5.253322
  N     1.913471  8.968527  5.406127
  S     0.526725  4.291713  3.835827
  S     0.875960  8.599180  4.182790
  S     3.675446  4.904549  1.073541
  S     3.763683  8.628428  1.098569
  S     2.735098  5.529512  5.096593
  S     3.503699  9.233209  5.040445
