16  
    
  C     1.550822  4.445226  3.404350
  C     1.374921  7.964068  3.103584
  C     0.258804  4.046147  2.938155
  C     0.157055  7.593797  2.452825
  N     2.593993  4.349549  2.520176
  N     2.422131  8.106411  2.305521
  N     0.184687  4.080003  1.600172
  N     0.318242  7.582099  1.153813
  N    -0.123691  4.694994  5.475339
  N    -0.413655  7.786539  4.901156
  S    -1.027419  4.199410  4.130126
  S    -1.180535  7.329513  3.468823
  S     1.744160  4.108079  1.051108
  S     1.869022  7.926443  0.735843
  S     1.554297  4.856701  5.121423
  S     1.195683  8.211492  4.781471
