16  
    
  C    -3.695506  1.844707  2.065206
  C    -3.444098  5.322488  2.004491
  C    -4.730997  1.098860  1.325554
  C    -4.703233  4.817100  1.488695
  N    -2.712199  2.152951  1.267373
  N    -2.442729  5.416124  1.155022
  N    -4.375446  0.740597  0.110355
  N    -4.651738  4.568870  0.180593
  N    -5.613597  1.512036  3.663223
  N    -5.126744  5.304807  4.029812
  S    -6.107960  0.626936  2.232014
  S    -5.960915  4.935151  2.683400
  S    -2.944839  1.519548 -0.221010
  S    -3.105446  4.801563 -0.281088
  S    -4.034021  2.181626  3.705950
  S    -3.505280  5.741069  3.679992
