16  
    
  C    -1.184536  3.263077  2.122738
  C    -1.057030  7.029063  2.601889
  C    -2.427595  2.704418  1.521631
  C    -2.300946  6.750417  1.911731
  N    -0.327241  3.666746  1.211159
  N    -0.029736  7.188988  1.773485
  N    -2.426804  2.634020  0.204998
  N    -2.178746  6.596424  0.600172
  N    -2.822641  2.904839  4.092472
  N    -2.819465  6.657739  4.565167
  S    -3.568622  2.249828  2.744701
  S    -3.686805  6.714756  3.134308
  S    -0.953706  3.267843 -0.292783
  S    -0.631733  7.005401  0.228381
  S    -1.338600  3.638761  3.839047
  S    -1.137176  6.947900  4.355890
