16  
    
  C     3.208939  4.969097  3.482635
  C     3.308417  9.223926  3.752716
  C     1.981144  4.612818  2.773704
  C     2.166401  8.861375  2.969685
  N     4.240631  5.147950  2.676834
  N     4.500463  9.223760  3.111017
  N     2.085749  4.546013  1.460277
  N     2.476520  8.616337  1.645593
  N     1.386002  5.147746  5.211019
  N     1.406419  8.932303  5.496283
  S     0.579692  4.609749  3.797629
  S     0.669350  8.790434  3.996145
  S     3.735771  4.793083  1.120082
  S     4.132757  9.011927  1.503600
  S     3.044857  5.236147  5.173318
  S     3.121218  9.250428  5.402490
