16  
    
  C    -3.788779  1.959584  1.943744
  C    -3.495672  5.365518  1.964119
  C    -4.671856  1.004153  1.323954
  C    -4.731249  4.883233  1.501454
  N    -2.718471  2.293881  1.227915
  N    -2.482246  5.406658  1.087367
  N    -4.376090  0.775280  0.048854
  N    -4.694106  4.486300  0.254135
  N    -5.619600  1.455957  3.656737
  N    -5.049282  5.289790  3.956229
  S    -6.020708  0.611055  2.328937
  S    -6.052885  4.918410  2.648833
  S    -2.978564  1.611023 -0.270461
  S    -3.121032  4.808029 -0.261055
  S    -4.183172  2.225900  3.627305
  S    -3.556225  5.745450  3.609448
