16  
    
  C     0.881691  3.784741  2.992287
  C     1.138171  7.658334  2.991617
  C    -0.367961  3.287052  2.447478
  C    -0.019236  7.112690  2.380046
  N     1.879797  3.839152  2.117852
  N     2.224730  7.705531  2.235619
  N    -0.443982  3.224146  1.101106
  N     0.106237  6.708234  1.122591
  N    -0.674530  3.707399  4.997218
  N    -0.725924  7.626148  4.832738
  S    -1.633252  3.341567  3.634102
  S    -1.422105  7.028117  3.432835
  S     1.172260  3.421811  0.610434
  S     1.666090  7.069231  0.740983
  S     0.856269  4.131730  4.677855
  S     0.898897  7.963949  4.712189
