16  
    
  C    -0.671966  3.172201  2.765110
  C    -1.358609  6.591044  2.603494
  C    -1.897237  2.638137  2.128021
  C    -2.420946  6.014654  1.825538
  N     0.325985  3.295692  1.900716
  N    -0.296494  6.834915  1.883727
  N    -1.745811  2.357879  0.845890
  N    -2.219796  5.929829  0.518766
  N    -2.440858  3.080474  4.592915
  N    -3.189784  6.083893  4.317609
  S    -3.308848  2.791806  3.225286
  S    -3.786615  5.610705  2.856222
  S    -0.154547  2.638312  0.480641
  S    -0.676339  6.605689  0.302884
  S    -0.817697  3.419026  4.437152
  S    -1.607698  6.650249  4.301193
