16  
    
  C    -5.429828  1.199014  1.628061
  C    -5.185366  4.812160  1.388123
  C    -6.720671  0.888301  0.968386
  C    -6.453221  4.425325  0.830365
  N    -4.400603  1.061901  0.805332
  N    -4.128783  4.718267  0.591960
  N    -6.653149  0.728767 -0.345212
  N    -6.366197  4.080138 -0.455382
  N    -7.183930  1.087879  3.485801
  N    -6.881554  4.849795  3.388788
  S    -8.039787  0.840271  2.057414
  S    -7.755449  4.416306  2.054781
  S    -4.994943  0.827595 -0.727413
  S    -4.742159  4.143064 -0.852400
  S    -5.524140  1.267616  3.372941
  S    -5.249495  5.069632  3.104179
