16  
    
  C    -5.782089  0.961779  1.622337
  C    -6.012897  4.745349  1.403709
  C    -6.912633  0.419837  0.909475
  C    -7.155047  4.307786  0.784133
  N    -4.748903  1.043400  0.790486
  N    -4.939109  4.850629  0.618894
  N    -6.728452  0.262619 -0.408883
  N    -7.011780  4.135446 -0.542677
  N    -7.551457  0.683146  3.309280
  N    -7.715903  4.461279  3.276942
  S    -8.289903  0.084293  1.930187
  S    -8.489649  3.982250  1.863504
  S    -5.154397  0.630537 -0.727184
  S    -5.400854  4.434337 -0.920660
  S    -5.950682  1.025435  3.304659
  S    -6.084164  4.715159  3.136992
