16  
    
  C    -1.727922  2.329064  1.963551
  C    -1.822583  6.547382  2.102983
  C    -3.038121  2.102695  1.313622
  C    -2.885296  5.641490  1.594296
  N    -0.753630  2.342112  1.093140
  N    -0.812421  6.796607  1.257111
  N    -3.008959  1.976973  0.000624
  N    -2.643108  5.227370  0.363871
  N    -3.405332  2.225298  3.881618
  N    -3.463102  6.003222  4.002492
  S    -4.250000  1.832921  2.533519
  S    -4.251964  5.502968  2.631881
  S    -1.434991  2.253475 -0.424856
  S    -1.217905  5.895849 -0.049488
  S    -1.786013  2.559980  3.653223
  S    -2.167018  7.005779  3.723111
