16  
    
  C     0.336517  3.576573  2.931442
  C     0.391975  7.647723  2.821374
  C    -0.833951  3.158121  2.223708
  C    -0.932180  7.516182  2.299749
  N     1.366293  3.871203  2.169387
  N     1.321964  7.685640  1.882166
  N    -0.823057  3.497883  0.927655
  N    -1.028222  7.373417  0.983447
  N    -1.403861  3.125056  4.728883
  N    -1.200911  7.549940  4.816590
  S    -2.230296  2.860116  3.315464
  S    -2.160701  7.456092  3.486497
  S     0.843308  3.771903  0.585371
  S     0.579185  7.565179  0.449403
  S     0.202295  3.413058  4.604460
  S     0.450356  7.559512  4.537051
