16  
    
  C     3.188030  5.029267  3.482329
  C     3.502576  8.944948  3.780877
  C     1.914542  4.774151  2.817930
  C     2.264628  8.758535  3.122514
  N     4.263617  5.003296  2.698882
  N     4.588123  8.917247  2.958026
  N     2.045907  4.535641  1.533422
  N     2.332909  8.741913  1.765270
  N     1.368206  5.146194  5.264230
  N     1.490661  9.277491  5.503899
  S     0.564362  4.747477  3.854105
  S     0.859627  8.904976  3.999479
  S     3.671314  4.732548  1.135707
  S     3.907338  8.755886  1.414971
  S     3.056650  5.220290  5.210799
  S     3.226027  9.239170  5.540277
