16  
    
  C    -4.134821  1.367985  1.801547
  C    -4.131803  5.254120  1.961817
  C    -5.414550  1.194585  1.064925
  C    -5.416460  5.005562  1.343198
  N    -3.029962  1.260088  1.043688
  N    -3.094800  5.229272  1.134706
  N    -5.222709  1.160138 -0.253199
  N    -5.384912  4.924474  0.008417
  N    -6.070006  1.530719  3.490898
  N    -5.897806  5.160425  3.856887
  S    -6.840929  1.271057  2.011525
  S    -6.772687  4.939638  2.416702
  S    -3.632235  1.155309 -0.546100
  S    -3.764248  4.886143 -0.329665
  S    -4.349062  1.585380  3.455491
  S    -4.200225  5.296609  3.659744
