16  
    
  C     0.617750  3.680110  3.183155
  C     1.096401  7.567132  2.736038
  C    -0.495098  3.276613  2.389336
  C    -0.087777  7.062640  1.983170
  N     1.615865  4.177685  2.472959
  N     2.198346  7.737799  2.002235
  N    -0.271224  3.248454  1.051315
  N     0.107922  6.844360  0.675724
  N    -1.215140  3.068620  4.848142
  N    -0.675863  7.124838  4.545018
  S    -1.821201  2.798544  3.279584
  S    -1.382264  6.657713  3.111516
  S     1.280396  3.856684  0.858127
  S     1.714337  7.319624  0.494240
  S     0.274214  3.702869  4.948616
  S     0.845558  7.789602  4.423637
