16  
    
  C     2.962021  4.814039  3.693190
  C     2.801359  8.874258  3.326807
  C     1.634959  4.983693  3.099834
  C     1.582486  8.466597  2.721840
  N     3.951068  4.910469  2.793922
  N     3.930870  8.786437  2.625646
  N     1.625056  4.885304  1.780123
  N     1.836985  7.958491  1.482369
  N     1.274808  5.533398  5.544942
  N     1.140958  8.751903  5.252876
  S     0.349581  5.280066  4.196099
  S     0.213551  8.520033  3.903276
  S     3.167296  4.787368  1.271943
  S     3.446501  8.185825  1.122988
  S     2.919954  5.368464  5.378748
  S     2.782091  9.019220  5.031233
