16  
    
  C     2.948351  4.846265  3.677429
  C     2.866405  8.797397  3.394439
  C     1.641735  4.937000  3.072519
  C     1.631230  8.429388  2.689171
  N     3.944424  4.882643  2.797591
  N     3.963595  8.760926  2.634190
  N     1.635260  4.873140  1.746241
  N     1.879253  8.004146  1.438114
  N     1.281556  5.498487  5.470678
  N     1.090156  8.734306  5.303936
  S     0.316382  5.246319  4.165103
  S     0.198969  8.501439  3.893205
  S     3.197674  4.839893  1.309400
  S     3.490473  8.225170  1.184357
  S     2.916180  5.335723  5.351467
  S     2.804943  9.034594  5.065507
