16  
    
  C    -2.674489  2.574451  2.124380
  C    -2.499969  6.177753  2.031011
  C    -3.870475  2.025331  1.552269
  C    -3.612843  5.566113  1.323928
  N    -1.654999  2.824693  1.315144
  N    -1.461780  6.571530  1.329206
  N    -3.692562  1.687945  0.298803
  N    -3.428824  5.625414  0.030769
  N    -4.383135  2.431598  4.078060
  N    -4.488113  6.130504  3.731050
  S    -5.124560  1.831076  2.731158
  S    -5.110184  5.340273  2.350539
  S    -2.191633  2.249573 -0.200161
  S    -1.891283  6.118035 -0.228663
  S    -2.769787  2.852092  3.849990
  S    -2.905871  6.646370  3.698626
