16  
    
  C     3.094560  5.087051  3.360430
  C     3.087934  8.905775  3.891801
  C     1.910177  4.783781  2.618750
  C     1.796782  8.480883  3.324506
  N     4.173213  5.120502  2.589500
  N     3.956739  9.182389  2.915878
  N     2.061560  4.489521  1.336448
  N     1.827146  8.304847  2.027138
  N     1.139961  5.051972  5.063354
  N     1.330944  8.930433  5.779976
  S     0.447962  4.641342  3.596199
  S     0.491503  8.692334  4.412495
  S     3.636144  4.845449  0.975675
  S     3.289627  8.651635  1.463267
  S     2.786137  5.258114  5.123704
  S     2.921075  9.371564  5.667247
