16  
    
  C     0.856139  3.892586  2.553816
  C     1.549466  7.956359  3.267397
  C    -0.336791  3.508549  1.839539
  C     0.239676  7.824535  2.643737
  N     1.884014  4.127303  1.756270
  N     2.565014  7.861222  2.394204
  N    -0.124819  3.410917  0.505491
  N     0.260201  7.792125  1.314647
  N    -0.890204  3.651210  4.370929
  N    -0.224433  7.840689  5.213490
  S    -1.625520  3.165739  2.888173
  S    -1.080134  7.788771  3.756822
  S     1.486369  3.718037  0.255217
  S     1.905957  7.865290  0.895109
  S     0.731796  4.051787  4.314097
  S     1.423930  8.022992  5.061687
