16  
    
  C     2.040265  4.400469  3.063992
  C     2.075297  7.954699  3.198928
  C     0.775897  4.063565  2.377185
  C     0.901052  7.552484  2.459254
  N     3.066377  4.455730  2.217954
  N     3.155852  8.053594  2.419024
  N     0.957674  3.600887  1.120555
  N     1.072651  7.396664  1.147088
  N     0.333629  4.396724  4.871709
  N     0.059190  8.062953  4.815471
  S    -0.528307  3.927213  3.531310
  S    -0.529771  7.425380  3.437591
  S     2.573230  3.998563  0.674730
  S     2.671794  7.693362  0.872490
  S     1.912019  4.802263  4.709316
  S     1.692932  8.309069  4.887906
