16  
    
  C    -4.654607  0.744995  1.430048
  C    -4.783282  4.509568  1.864505
  C    -5.902326  0.658579  0.730796
  C    -6.024375  4.280676  1.136959
  N    -3.578105  1.015844  0.634383
  N    -3.738097  4.752811  1.073342
  N    -5.770251  0.714560 -0.592350
  N    -5.891340  4.257675 -0.192256
  N    -6.521805  0.843320  3.179813
  N    -6.586104  4.514441  3.664233
  S    -7.350466  0.654718  1.778485
  S    -7.358093  4.194849  2.210164
  S    -4.224625  0.989264 -0.878179
  S    -4.262837  4.537564 -0.451347
  S    -4.861024  1.090849  3.094949
  S    -4.889801  4.781676  3.574361
