16  
    
  C     2.961393  5.238522  3.503933
  C     2.837053  8.697775  3.356033
  C     1.754694  4.792855  2.806073
  C     1.733778  8.131564  2.640766
  N     3.942312  5.557197  2.644661
  N     3.883651  9.136590  2.649660
  N     1.857789  4.670543  1.494669
  N     1.944456  8.197822  1.316717
  N     1.032918  5.116608  5.232956
  N     1.171284  8.321398  5.166831
  S     0.431504  4.385581  3.840797
  S     0.412655  7.819300  3.807800
  S     3.365531  5.239771  1.105554
  S     3.461671  8.869194  1.095960
  S     2.731619  5.356669  5.243792
  S     2.662717  8.999817  5.055649
