16  
    
  C    -4.180585  1.437761  1.883122
  C    -3.997014  5.204147  1.939377
  C    -5.407121  1.095407  1.262976
  C    -5.242925  4.805772  1.385539
  N    -3.110019  1.381750  1.052758
  N    -2.940394  4.967898  1.174707
  N    -5.317867  1.046978 -0.092029
  N    -5.215574  4.387525  0.104735
  N    -5.968408  1.398742  3.854813
  N    -5.752152  5.333236  3.944245
  S    -6.752244  1.103242  2.383097
  S    -6.592867  4.822069  2.547476
  S    -3.701247  1.190515 -0.458668
  S    -3.605814  4.446525 -0.334086
  S    -4.344503  1.648309  3.690796
  S    -4.106494  5.696228  3.667255
