16  
    
  C    -4.265430  1.425280  1.800906
  C    -4.112378  5.079813  1.960798
  C    -5.458194  1.238208  1.079402
  C    -5.378670  4.718468  1.401250
  N    -3.113817  1.419158  1.123689
  N    -3.083001  5.025825  1.094713
  N    -5.246155  1.085857 -0.222007
  N    -5.342703  4.455065  0.085761
  N    -6.108365  1.560320  3.629543
  N    -5.863833  5.380305  3.933286
  S    -6.835200  1.230750  2.157928
  S    -6.764249  5.032411  2.530333
  S    -3.612897  1.159408 -0.479983
  S    -3.768529  4.749739 -0.413866
  S    -4.395797  1.479880  3.584168
  S    -4.202914  5.439883  3.716097
