16  
    
  C    -1.411492  3.419000  2.025652
  C    -0.931868  6.850074  2.553369
  C    -2.548081  2.707608  1.445563
  C    -2.265769  6.763733  1.897596
  N    -0.425637  3.709465  1.194509
  N     0.079925  6.910068  1.693020
  N    -2.356406  2.520537  0.148519
  N    -2.274037  6.731515  0.572861
  N    -3.010205  2.814110  3.976120
  N    -2.745838  6.853612  4.466169
  S    -3.706808  2.209090  2.579097
  S    -3.586320  6.615241  3.004493
  S    -0.927020  3.184622 -0.296539
  S    -0.698504  7.007954  0.189499
  S    -1.531547  3.587099  3.762697
  S    -1.065506  7.029598  4.328501
