16  
    
  C    -2.365568  1.996989  2.070510
  C    -2.621041  5.636825  2.108016
  C    -3.661570  1.907103  1.486694
  C    -3.845117  5.254424  1.413516
  N    -1.360766  2.015610  1.228109
  N    -1.590607  5.897554  1.297416
  N    -3.627716  1.752511  0.179344
  N    -3.745129  5.239418  0.085780
  N    -4.088016  2.234767  3.952771
  N    -4.365997  5.472006  3.932074
  S    -5.000912  2.018983  2.605141
  S    -5.163088  4.945389  2.601973
  S    -2.036585  1.865623 -0.273094
  S    -2.174857  5.496348 -0.275861
  S    -2.440760  2.347186  3.794099
  S    -2.723324  5.727737  3.804252
