16  
    
  C     0.482046  3.700337  2.983526
  C     0.948200  7.551704  2.641701
  C    -0.448808  3.041496  2.177945
  C    -0.157624  7.000236  1.976914
  N     1.470577  4.237255  2.256350
  N     1.902013  7.963223  1.825543
  N    -0.175102  3.020375  0.858383
  N    -0.135850  7.062115  0.660198
  N    -1.454330  3.172829  4.554230
  N    -0.691125  6.906209  4.497875
  S    -1.885796  2.530271  3.043933
  S    -1.449971  6.494144  3.049293
  S     1.308355  3.700811  0.733871
  S     1.340542  7.796192  0.307280
  S     0.039861  3.777342  4.669193
  S     0.870446  7.508482  4.384345
