16  
    
  C     2.795026  5.089305  3.757476
  C     2.220225  8.656132  3.411546
  C     1.536235  4.634567  3.196134
  C     1.209917  7.899887  2.656983
  N     3.757240  5.186427  2.814913
  N     3.298393  8.981474  2.715123
  N     1.565580  4.229387  1.920893
  N     1.577778  7.642515  1.403189
  N     1.162764  4.940974  5.647053
  N     0.391823  8.315858  5.194109
  S     0.330804  4.319088  4.362998
  S    -0.156636  7.526834  3.771721
  S     3.079093  4.581038  1.436311
  S     3.055482  8.359488  1.208995
  S     2.604487  5.648526  5.418275
  S     1.867227  9.023068  5.075092
