16  
    
  C    -5.233644  0.961818  1.391251
  C    -5.448975  4.645121  1.583647
  C    -6.508172  0.518706  0.761606
  C    -6.743471  4.325451  1.003165
  N    -4.266984  1.331801  0.560628
  N    -4.458813  4.793325  0.728420
  N    -6.431949  0.347662 -0.548824
  N    -6.743677  4.105419 -0.303529
  N    -7.103351  0.917489  3.274704
  N    -6.975189  4.216610  3.559584
  S    -7.830443  0.381191  1.836994
  S    -8.010631  4.275900  2.222035
  S    -4.909336  0.955060 -0.971747
  S    -5.193491  4.483351 -0.738634
  S    -5.525237  1.348334  3.060036
  S    -5.430693  4.897361  3.347155
