16  
    
  C     2.535149  5.039908  3.573634
  C     2.203885  8.756876  3.385540
  C     1.456344  4.229469  3.108343
  C     1.214674  7.889203  2.796294
  N     3.491781  5.233925  2.663217
  N     3.229946  9.051391  2.615334
  N     1.515980  4.005785  1.802958
  N     1.517302  7.572927  1.562416
  N     0.882283  4.762622  5.546200
  N     0.562691  8.391423  5.253592
  S     0.093120  4.242984  4.155338
  S    -0.105327  7.571600  3.938155
  S     2.933618  4.662381  1.228098
  S     2.990374  8.314226  1.156771
  S     2.505339  5.320975  5.280776
  S     2.000705  9.139797  5.074365
