16  
    
  C     2.890452  5.310192  3.232445
  C     2.843852  9.190410  3.447531
  C     1.790968  4.464583  2.741072
  C     1.790641  8.468571  2.794520
  N     3.848897  5.553964  2.297339
  N     3.815020  9.496959  2.660438
  N     1.815509  4.346278  1.410527
  N     1.995677  8.274460  1.514226
  N     1.342299  4.629597  5.206743
  N     1.112427  8.513980  5.321421
  S     0.509165  4.174499  3.870329
  S     0.485368  7.862914  3.873005
  S     3.250661  4.869095  0.865704
  S     3.400199  8.996795  1.126766
  S     2.771236  5.512136  4.977648
  S     2.699639  9.146703  5.170916
