16  
    
  C     1.054411  4.428673  2.840971
  C     1.626104  8.661558  2.934246
  C    -0.012623  3.849869  2.114444
  C     0.461098  8.041684  2.338348
  N     2.152256  4.647625  2.127709
  N     2.645368  8.907405  2.123792
  N     0.237505  3.671167  0.823889
  N     0.601066  7.855022  1.005638
  N    -0.880968  3.817316  4.562306
  N    -0.096474  8.452625  4.886887
  S    -1.500617  3.419166  3.042316
  S    -0.916314  8.078622  3.500346
  S     1.728579  4.251518  0.573682
  S     2.119391  8.335870  0.603022
  S     0.752521  4.339327  4.558295
  S     1.498179  8.904637  4.643634
