16  
    
  C     2.997963  5.284859  3.859798
  C     2.605918  8.465853  3.174422
  C     1.680390  5.187410  3.246825
  C     1.321127  8.208413  2.594851
  N     3.971452  5.163063  2.949109
  N     3.611354  8.498551  2.341003
  N     1.666185  4.624034  2.036056
  N     1.346355  8.071308  1.257642
  N     1.280729  5.576434  5.764183
  N     1.054313  8.957917  5.093192
  S     0.430403  5.386370  4.409101
  S     0.152310  8.258001  3.873007
  S     3.249951  4.701588  1.466145
  S     3.000146  8.238837  0.824397
  S     2.899333  5.780936  5.566350
  S     2.664525  9.062351  4.724497
