16  
    
  C     3.045235  5.113739  3.381140
  C     3.380932  8.968203  3.598748
  C     2.012864  4.373979  2.738801
  C     2.081166  8.657025  3.020684
  N     4.076689  5.477225  2.645365
  N     4.388151  9.014958  2.690405
  N     2.172130  4.344675  1.397444
  N     2.084975  8.453715  1.669405
  N     1.162013  5.082952  5.091053
  N     1.590970  8.852643  5.420496
  S     0.601668  4.137545  3.833421
  S     0.713424  8.587924  4.072000
  S     3.720652  4.999870  1.044616
  S     3.620897  8.796875  1.163633
  S     2.778154  5.374616  5.128021
  S     3.153589  9.297743  5.308986
