16  
    
  C     2.003871  5.009217  3.166637
  C     2.038843  8.514516  3.321110
  C     0.888010  4.480746  2.377982
  C     0.804500  8.231967  2.639775
  N     3.117958  5.174554  2.450645
  N     3.096774  8.753600  2.588480
  N     1.029964  4.471059  1.037718
  N     0.867681  8.369351  1.334555
  N     0.220580  4.437843  4.863082
  N     0.259148  8.439305  5.182852
  S    -0.503233  4.210005  3.415969
  S    -0.500890  7.936974  3.777054
  S     2.646384  4.965488  0.850916
  S     2.514459  8.682681  1.004137
  S     1.724641  5.074375  4.936982
  S     1.858877  8.852718  4.985863
