16  
    
  C    -2.383193  1.951306  2.006357
  C    -2.655178  5.717613  2.084241
  C    -3.679820  1.807033  1.465247
  C    -3.873154  5.330723  1.401851
  N    -1.330098  1.861178  1.207751
  N    -1.595923  5.775215  1.254309
  N    -3.651044  1.677198  0.148195
  N    -3.762885  5.190274  0.084973
  N    -4.078805  2.286966  4.011515
  N    -4.352455  5.483201  3.912551
  S    -4.985095  2.096839  2.642668
  S    -5.091469  5.037214  2.496062
  S    -2.043045  1.794901 -0.317036
  S    -2.103332  5.470225 -0.206604
  S    -2.441672  2.361723  3.718310
  S    -2.706046  5.790898  3.796586
