16  
    
  C    -3.342995  1.645436  1.623951
  C    -3.801160  5.358072  1.591946
  C    -4.509349  1.148614  1.006498
  C    -5.050620  4.881707  1.053744
  N    -2.356896  1.932667  0.775418
  N    -2.818141  5.588394  0.718261
  N    -4.492247  0.863022 -0.306312
  N    -4.964334  4.796382 -0.281963
  N    -5.074396  1.470302  3.516908
  N    -5.556827  5.230264  3.569125
  S    -5.866871  0.945358  2.107035
  S    -6.383034  4.636760  2.221732
  S    -2.994408  1.439142 -0.756068
  S    -3.411528  5.208878 -0.734694
  S    -3.575700  2.172860  3.204139
  S    -3.923900  5.564598  3.339933
