16  
    
  C     2.637491  5.231776  3.634592
  C     2.269540  8.774801  3.443544
  C     1.459145  4.518982  3.171263
  C     1.279742  7.901868  2.808481
  N     3.692907  5.095472  2.823167
  N     3.245127  9.127648  2.638592
  N     1.510701  4.243937  1.871896
  N     1.533526  7.622127  1.548895
  N     1.028582  4.956026  5.657294
  N     0.434400  8.166654  5.132985
  S     0.249752  4.190744  4.373562
  S    -0.136941  7.562378  3.743041
  S     3.072150  4.573767  1.339138
  S     3.039853  8.285759  1.162890
  S     2.619093  5.563709  5.345466
  S     1.852332  9.060687  5.136931
