16  
    
  C     3.034939  5.335473  3.386772
  C     3.336365  9.056606  3.427907
  C     1.934517  4.601528  2.762586
  C     2.045872  8.694830  2.888302
  N     4.082186  5.471937  2.611822
  N     4.301464  9.208641  2.547077
  N     2.114991  4.285268  1.493992
  N     2.031189  8.448524  1.541269
  N     1.249773  4.759135  5.178961
  N     1.838945  8.895833  5.431036
  S     0.591179  4.256162  3.747967
  S     0.855750  8.609683  4.137116
  S     3.612717  4.923480  1.092924
  S     3.701186  8.594163  1.114263
  S     2.728956  5.485446  5.059565
  S     3.418809  9.241863  5.141063
