16  
    
  C    -1.463834  3.430554  2.035638
  C    -0.973494  6.936526  2.511280
  C    -2.484229  2.617427  1.389510
  C    -2.290341  6.810705  1.911151
  N    -0.552890  3.791838  1.177653
  N     0.010375  6.919369  1.616924
  N    -2.396957  2.405287  0.092028
  N    -2.217707  6.806320  0.609611
  N    -3.083488  2.780853  3.931649
  N    -2.705937  6.766335  4.441151
  S    -3.793518  2.196309  2.521389
  S    -3.579175  6.606021  3.084431
  S    -0.901489  3.097008 -0.317150
  S    -0.619543  6.894354  0.071987
  S    -1.589928  3.518419  3.773354
  S    -1.098289  7.058218  4.251525
