16  
    
  C    -1.066792  3.017170  2.484776
  C    -0.561024  6.522663  2.305024
  C    -2.318665  2.840554  1.742733
  C    -1.846350  6.157085  1.703701
  N    -0.052875  3.103933  1.659790
  N     0.435653  6.717792  1.463940
  N    -2.200156  2.505580  0.452485
  N    -1.834412  6.310682  0.380898
  N    -2.898755  3.198547  4.258501
  N    -2.376599  6.607720  4.232278
  S    -3.705206  2.995550  2.835029
  S    -3.220617  6.260396  2.806948
  S    -0.549381  2.677089  0.140287
  S    -0.307118  6.544588 -0.062842
  S    -1.249349  3.350051  4.153634
  S    -0.696101  6.891439  4.013650
