16  
    
  C     1.891124  4.675637  3.262395
  C     1.436016  8.047777  3.018609
  C     0.709425  3.987998  2.731558
  C     0.394936  7.269216  2.353964
  N     2.946242  4.638997  2.420787
  N     2.391233  8.533963  2.227936
  N     0.854996  3.695915  1.407473
  N     0.615968  7.123714  1.043162
  N     0.107564  4.525417  5.223050
  N    -0.311568  7.602782  4.840575
  S    -0.598661  4.080384  3.780667
  S    -0.914738  6.967067  3.424777
  S     2.331110  4.151778  1.006164
  S     2.008339  7.941490  0.712912
  S     1.783931  4.875557  5.041869
  S     1.230025  8.264931  4.728921
