16  
    
  C     2.845261  5.242801  3.778672
  C     2.335029  8.562712  3.439215
  C     1.702127  4.458078  3.317468
  C     1.232611  7.926087  2.714527
  N     3.874012  5.330998  2.919831
  N     3.429842  8.779991  2.731399
  N     1.760257  4.197610  2.004411
  N     1.463684  7.809091  1.408736
  N     1.205984  4.976104  5.828107
  N     0.372024  8.461276  4.968306
  S     0.302370  4.633153  4.468962
  S    -0.137408  7.537325  3.749073
  S     3.264857  4.675682  1.452743
  S     3.012817  8.355989  1.150505
  S     2.675082  5.697074  5.467639
  S     1.909935  8.949377  5.043709
