16  
    
  C    -1.106436  3.039097  2.449694
  C    -0.561586  6.547857  2.300907
  C    -2.360658  2.864765  1.757492
  C    -1.864202  6.266060  1.733967
  N    -0.040767  3.069166  1.621017
  N     0.398408  6.751792  1.400357
  N    -2.189184  2.442021  0.492303
  N    -1.903836  6.312596  0.413044
  N    -2.942073  3.183854  4.281571
  N    -2.394792  6.604972  4.250070
  S    -3.731499  3.027068  2.792199
  S    -3.207421  6.303015  2.849488
  S    -0.594193  2.686094  0.130399
  S    -0.321687  6.571504 -0.144074
  S    -1.256047  3.329920  4.146473
  S    -0.726553  6.905368  4.032451
