16  
    
  C    -0.340686  3.326327  2.629798
  C    -0.299784  7.072085  2.447585
  C    -1.429282  2.612441  2.067053
  C    -1.494946  6.757604  1.666781
  N     0.740963  3.427984  1.843749
  N     0.791241  7.181085  1.715859
  N    -1.381732  2.469915  0.750905
  N    -1.211358  6.497637  0.399866
  N    -2.176172  3.161466  4.434401
  N    -2.131023  6.815901  4.146461
  S    -2.783221  2.382111  3.140829
  S    -2.888272  6.556788  2.674713
  S     0.206768  2.773117  0.369968
  S     0.388563  6.755562  0.210071
  S    -0.653848  3.752469  4.316987
  S    -0.509923  7.297274  4.115757
