16  
    
  C    -5.558864  0.900675  1.491611
  C    -5.443149  4.858638  1.243969
  C    -6.732097  0.422397  0.851214
  C    -6.670851  4.260146  0.690123
  N    -4.509219  0.956643  0.656390
  N    -4.498680  5.104727  0.336816
  N    -6.633447  0.265373 -0.492706
  N    -6.613357  4.132090 -0.659536
  N    -7.338307  0.838554  3.249553
  N    -6.892230  4.314389  3.206412
  S    -8.101659  0.219848  1.927049
  S    -7.821015  3.946843  1.890186
  S    -5.068804  0.602794 -0.825221
  S    -5.106125  4.643617 -1.103352
  S    -5.742220  1.014833  3.171042
  S    -5.426186  5.036833  2.924956
