16  
    
  C    -5.124396  1.186784  1.762554
  C    -5.085506  4.968477  1.452664
  C    -6.296454  0.610957  1.152034
  C    -6.186926  4.362469  0.800972
  N    -4.114311  1.391322  0.930285
  N    -4.010414  5.077389  0.696781
  N    -6.047560  0.289516 -0.113656
  N    -5.983037  4.152590 -0.481175
  N    -6.918849  0.932277  3.589528
  N    -6.876928  4.588334  3.241784
  S    -7.582656  0.310753  2.289019
  S    -7.490564  4.022233  1.805633
  S    -4.502546  0.661453 -0.474149
  S    -4.360154  4.499907 -0.825159
  S    -5.377346  1.389898  3.498269
  S    -5.349985  5.263750  3.145216
