16  
    
  C    -3.704818  1.854484  1.857182
  C    -3.960363  5.325102  1.792993
  C    -4.922416  1.372130  1.197305
  C    -5.081131  4.919163  1.048160
  N    -2.707167  2.099475  1.040710
  N    -2.906725  5.639594  1.032479
  N    -4.905621  1.366342 -0.137493
  N    -4.917082  4.863639 -0.270552
  N    -5.368560  1.510929  3.677995
  N    -5.771749  4.933614  3.516517
  S    -6.174407  1.134823  2.296221
  S    -6.440735  4.416074  2.047242
  S    -3.348238  1.832015 -0.519982
  S    -3.375093  5.436943 -0.481616
  S    -3.757829  1.874598  3.572983
  S    -4.234369  5.448664  3.488748
