16  
    
  C     3.496609  5.338338  3.589176
  C     3.554786  9.114847  3.502273
  C     2.237681  4.996550  2.948934
  C     2.449404  8.526956  2.822209
  N     4.466328  5.537884  2.669926
  N     4.521824  9.440724  2.655466
  N     2.258586  4.851040  1.626126
  N     2.569703  8.381948  1.489998
  N     1.744358  4.893887  5.477118
  N     1.818040  8.695699  5.420881
  S     0.950157  4.627983  4.015382
  S     1.153173  8.108582  4.004945
  S     3.825313  5.215727  1.200049
  S     4.044993  9.086310  1.122755
  S     3.291998  5.366682  5.313908
  S     3.349160  9.395747  5.210482
