16  
    
  C    -3.266949  1.935854  2.024996
  C    -3.137280  5.455423  2.120081
  C    -4.456260  1.384671  1.357836
  C    -4.270214  4.788726  1.455740
  N    -2.251621  2.106410  1.182114
  N    -2.140829  5.871371  1.305546
  N    -4.378906  1.311596  0.010468
  N    -4.080193  4.678561  0.152283
  N    -5.016266  1.571923  3.918038
  N    -4.847163  5.130570  3.968910
  S    -5.791769  1.173562  2.501015
  S    -5.580880  4.501800  2.568980
  S    -2.836254  1.806455 -0.401777
  S    -2.603801  5.280341 -0.196204
  S    -3.373359  1.874718  3.816460
  S    -3.357841  5.860831  3.773148
