16  
    
  C     1.991682  4.760267  2.982098
  C     2.366886  8.592292  3.118903
  C     0.840974  4.110316  2.378501
  C     1.136992  8.101241  2.494934
  N     2.992266  5.042713  2.174206
  N     3.392715  8.594964  2.261651
  N     0.958509  4.112368  1.049453
  N     1.244256  7.844401  1.198896
  N     0.322266  4.337910  4.793959
  N     0.462613  8.361125  4.907546
  S    -0.516018  4.031402  3.465165
  S    -0.188325  7.748725  3.502069
  S     2.543920  4.569569  0.661342
  S     2.746386  8.244107  0.772969
  S     1.824632  4.990562  4.690221
  S     2.032592  8.846697  4.893129
