16  
    
  C     1.241201  4.296683  3.096881
  C     1.628676  8.253190  3.008150
  C    -0.036975  4.110145  2.435098
  C     0.374357  8.120332  2.338189
  N     2.253837  4.625895  2.249495
  N     2.696732  8.150811  2.224908
  N     0.024330  3.966132  1.103815
  N     0.537555  7.951184  1.033634
  N    -0.585454  4.171512  4.911229
  N    -0.067321  8.314455  4.864668
  S    -1.337015  3.682980  3.555815
  S    -0.932003  8.086968  3.492685
  S     1.547711  4.429424  0.732978
  S     2.133486  7.871832  0.640596
  S     1.063870  4.523010  4.890025
  S     1.561365  8.515402  4.702878
