16  
    
  C    -5.312007  1.250427  1.482619
  C    -5.330900  4.568331  1.545910
  C    -6.634317  0.949195  0.886388
  C    -6.591018  4.124054  1.035062
  N    -4.258519  1.184713  0.643964
  N    -4.335270  4.653424  0.648945
  N    -6.574830  0.666423 -0.411912
  N    -6.631804  3.927924 -0.307760
  N    -7.057053  1.110884  3.339329
  N    -6.863071  4.827698  3.522804
  S    -7.978990  0.840867  1.982621
  S    -7.778654  4.090701  2.324610
  S    -4.951415  0.773911 -0.847815
  S    -5.077173  4.298826 -0.795294
  S    -5.488743  1.325428  3.177643
  S    -5.199048  4.802550  3.276984
