16  
    
  C     2.978589  5.178879  3.282410
  C     2.994937  9.151804  3.841065
  C     1.794458  4.652051  2.581160
  C     1.789919  8.709699  3.257729
  N     4.086240  5.209242  2.538340
  N     4.048298  9.181718  3.037110
  N     1.956361  4.597814  1.245833
  N     1.898719  8.388482  1.947965
  N     1.175688  4.997553  5.048405
  N     1.189125  8.893218  5.741422
  S     0.406518  4.563206  3.643355
  S     0.421085  8.462674  4.329395
  S     3.633447  4.745520  1.030627
  S     3.411596  8.817978  1.536183
  S     2.777752  5.293010  4.932953
  S     2.812552  9.383260  5.546527
