16  
    
  C     2.145627  4.429097  3.042903
  C     1.961906  8.113058  3.133021
  C     0.955821  4.017077  2.350041
  C     0.853996  7.518342  2.498400
  N     3.185315  4.678276  2.227106
  N     3.048862  8.254402  2.372167
  N     1.204128  3.567049  1.117634
  N     1.140799  7.117939  1.255077
  N     0.299286  4.448660  4.763036
  N     0.078414  8.222895  4.830918
  S    -0.409515  3.969151  3.314999
  S    -0.585394  7.577892  3.489023
  S     2.752983  4.025561  0.737764
  S     2.692590  7.496784  0.960753
  S     1.877380  4.814692  4.768100
  S     1.716860  8.518295  4.822010
