16  
    
  C    -5.373208  1.144580  1.315369
  C    -5.476103  4.765109  1.573307
  C    -6.542972  0.526892  0.665309
  C    -6.757024  4.452584  0.958342
  N    -4.342483  1.437385  0.528602
  N    -4.434606  4.926625  0.734912
  N    -6.426222  0.415020 -0.652854
  N    -6.671559  4.312112 -0.373724
  N    -7.141231  0.899163  3.183293
  N    -7.191460  4.488224  3.560411
  S    -7.817182  0.131208  1.781371
  S    -8.029688  4.191045  2.160595
  S    -4.878399  0.973675 -1.026706
  S    -5.076645  4.556912 -0.759454
  S    -5.491352  1.252292  3.080444
  S    -5.582972  4.861385  3.301325
