16  
    
  C     0.111095  3.325127  2.451939
  C    -0.034698  7.187997  2.697722
  C    -1.147591  2.982001  1.757180
  C    -1.188028  6.696086  2.035408
  N     1.147816  3.532936  1.682651
  N     1.038010  7.466156  1.950162
  N    -0.922731  2.812092  0.469199
  N    -1.083884  6.702442  0.674297
  N    -1.683776  2.963408  4.243845
  N    -1.736478  6.764883  4.593070
  S    -2.381101  2.348603  2.843035
  S    -2.562918  6.472412  3.131838
  S     0.603810  3.333992  0.124095
  S     0.507221  7.109297  0.436797
  S    -0.160528  3.495641  4.162320
  S    -0.150157  7.262703  4.451325
