16  
    
  C    -0.025764  3.703135  2.431109
  C     0.447502  7.379117  2.829284
  C    -1.206642  3.122730  1.825706
  C    -0.738186  6.871631  2.184665
  N     0.917177  3.831972  1.527776
  N     1.422385  7.649824  1.946409
  N    -1.136385  2.798855  0.563321
  N    -0.693715  6.694102  0.870546
  N    -1.760027  3.493520  4.348207
  N    -1.454332  7.323058  4.593250
  S    -2.505419  3.002391  2.938474
  S    -2.138062  6.656075  3.241278
  S     0.410308  3.213347  0.089220
  S     0.819963  7.165575  0.496401
  S    -0.129121  4.017458  4.156928
  S     0.137466  7.879655  4.467646
