16  
    
  C     0.691492  4.010995  2.931299
  C     0.681243  7.566266  2.678354
  C    -0.468607  3.348772  2.398977
  C    -0.475630  6.887164  2.191183
  N     1.787999  4.044428  2.143866
  N     1.635746  7.828272  1.780799
  N    -0.407943  3.301257  1.054969
  N    -0.436759  6.477005  0.933597
  N    -1.059017  3.803694  4.823310
  N    -0.990519  7.404166  4.730400
  S    -1.834275  3.164997  3.437718
  S    -1.760805  6.680908  3.465125
  S     1.201065  3.387205  0.653868
  S     0.969655  7.099114  0.365467
  S     0.470090  4.346932  4.616614
  S     0.552362  7.912880  4.509308
