16  
    
  C     2.994412  5.113683  3.265722
  C     2.827319  9.164135  3.784512
  C     1.756043  4.726795  2.557641
  C     1.692391  8.648731  3.079907
  N     4.017163  5.144533  2.425796
  N     3.951596  9.363535  3.089153
  N     1.904920  4.377859  1.295879
  N     1.871385  8.583305  1.722087
  N     1.133100  4.963121  5.073566
  N     1.174521  8.827418  5.670455
  S     0.421598  4.450445  3.640554
  S     0.417372  8.322255  4.286222
  S     3.497028  4.790084  0.914386
  S     3.618939  8.846753  1.548733
  S     2.785939  5.377729  4.965377
  S     2.732245  9.447088  5.479744
