16  
    
  C    -0.472351  3.195160  2.918195
  C    -1.113613  6.825694  2.768571
  C    -1.734732  2.885215  2.267012
  C    -2.210735  6.313959  1.885957
  N     0.576911  3.328250  2.124437
  N     0.013998  6.963253  2.099183
  N    -1.541754  2.659380  0.967550
  N    -1.844321  6.068906  0.651835
  N    -2.365268  3.405202  4.745997
  N    -3.102566  6.242434  4.247775
  S    -3.046841  2.718416  3.361958
  S    -3.663288  5.932045  2.726297
  S     0.052228  2.970120  0.618975
  S    -0.249959  6.605506  0.485141
  S    -0.709342  3.770271  4.563351
  S    -1.560925  6.821841  4.431766
