16  
    
  C    -2.429673  2.344061  2.165917
  C    -2.665357  5.604500  2.092233
  C    -3.744413  2.098741  1.534956
  C    -3.845591  5.154556  1.419040
  N    -1.401925  2.437645  1.329573
  N    -1.648178  5.911203  1.318513
  N    -3.578147  1.849597  0.244490
  N    -3.778593  5.084660  0.117117
  N    -4.188544  1.893459  4.042380
  N    -4.378530  5.238277  3.909543
  S    -5.052610  1.794121  2.667239
  S    -5.121128  4.994435  2.503854
  S    -1.998795  2.076467 -0.202833
  S    -2.317248  5.651735 -0.248108
  S    -2.620120  2.351038  3.907581
  S    -2.768629  5.734002  3.862007
