16  
    
  C    -1.444529  3.369264  2.029248
  C    -0.990049  6.970621  2.479410
  C    -2.553051  2.615516  1.399597
  C    -2.297375  6.781155  1.888701
  N    -0.545492  3.828772  1.151030
  N     0.004256  6.957715  1.616550
  N    -2.380381  2.341109  0.090054
  N    -2.207442  6.838697  0.565176
  N    -3.102233  2.768808  3.901403
  N    -2.693237  6.724939  4.460880
  S    -3.812270  2.184877  2.512064
  S    -3.567082  6.615970  3.092978
  S    -0.903728  3.078725 -0.315505
  S    -0.624610  6.843400  0.074045
  S    -1.620904  3.493066  3.763012
  S    -1.097576  7.068423  4.216861
