16  
    
  C    -3.860053  1.495145  1.726519
  C    -4.062146  5.340321  1.899009
  C    -5.191009  1.350822  1.084548
  C    -5.265751  5.111233  1.119351
  N    -2.907711  1.564084  0.806943
  N    -2.984995  5.647771  1.195089
  N    -5.118119  1.075169 -0.229903
  N    -5.047026  5.210611 -0.195018
  N    -5.689661  1.552712  3.650034
  N    -5.871048  5.000212  3.693080
  S    -6.522175  1.370697  2.194478
  S    -6.561848  4.791976  2.194827
  S    -3.488169  1.266527 -0.663425
  S    -3.462556  5.702655 -0.411546
  S    -4.052143  1.682153  3.439137
  S    -4.238810  5.070624  3.625888
