16  
    
  C     0.187701  3.326993  2.398456
  C     0.050464  7.238823  2.801123
  C    -1.017458  2.904761  1.691099
  C    -1.123872  6.886601  2.113599
  N     1.172234  3.663645  1.601899
  N     1.147731  7.393366  2.040423
  N    -0.987327  2.989607  0.368959
  N    -1.005971  6.684847  0.794478
  N    -1.595823  2.848729  4.256269
  N    -1.774791  7.006434  4.646861
  S    -2.331456  2.570019  2.753371
  S    -2.456523  6.461828  3.232866
  S     0.585744  3.364947  0.015237
  S     0.607213  7.050176  0.421168
  S    -0.026909  3.474137  4.170013
  S    -0.206368  7.454780  4.533390
