16  
    
  C    -3.413351  1.607946  2.046699
  C    -3.106726  5.435832  2.071339
  C    -4.656692  1.230007  1.479515
  C    -4.337325  5.062900  1.469969
  N    -2.385803  1.527197  1.198312
  N    -2.088076  5.565645  1.241806
  N    -4.574291  1.063502  0.157739
  N    -4.278810  4.819171  0.194442
  N    -5.135206  1.628113  3.995376
  N    -4.946880  5.177987  3.886779
  S    -5.965127  1.170521  2.641939
  S    -5.697835  4.940472  2.495352
  S    -2.959163  1.256662 -0.304665
  S    -2.723643  5.115348 -0.247384
  S    -3.506377  1.738224  3.873381
  S    -3.365542  5.687427  3.731976
