16  
    
  C     2.955898  5.133273  3.579095
  C     3.043632  8.889881  3.471437
  C     1.738043  4.912693  2.849185
  C     1.891697  8.285600  2.760725
  N     3.983662  5.558646  2.818568
  N     4.021936  9.119120  2.619033
  N     1.919717  4.871164  1.515194
  N     2.071132  7.990530  1.498162
  N     1.075059  4.804294  5.396007
  N     1.022449  8.480193  5.095662
  S     0.314599  4.651355  3.935340
  S     0.386445  8.013781  3.663974
  S     3.527434  5.243841  1.240688
  S     3.488435  8.625291  1.094446
  S     2.677071  5.356019  5.283989
  S     2.626227  8.812970  5.233099
