16  
    
  C     0.138259  3.562623  2.289660
  C     0.199999  7.246576  2.922717
  C    -1.080497  3.032364  1.655144
  C    -1.028809  6.754974  2.241896
  N     1.205859  3.677896  1.525868
  N     1.210773  7.513738  2.120274
  N    -0.960171  2.974899  0.336784
  N    -0.866606  6.605532  0.933005
  N    -1.478615  2.877224  4.258131
  N    -1.708168  7.214072  4.633485
  S    -2.386302  2.848057  2.810323
  S    -2.338287  6.512637  3.234874
  S     0.576920  3.502186 -0.047969
  S     0.694690  6.997375  0.569851
  S     0.120495  3.401013  4.042024
  S    -0.118734  7.718565  4.549006
