16  
    
  C    -4.122402  1.350954  1.711967
  C    -4.165936  5.258569  1.936265
  C    -5.369660  1.203490  0.977855
  C    -5.392265  5.203195  1.223059
  N    -3.053209  1.228123  0.931940
  N    -3.059818  5.203619  1.185144
  N    -5.204162  1.143937 -0.340493
  N    -5.308884  5.062290 -0.101661
  N    -5.958474  1.535028  3.493238
  N    -5.870065  4.897899  3.843676
  S    -6.728445  1.314873  2.078979
  S    -6.727438  4.911805  2.425626
  S    -3.585587  1.141731 -0.617458
  S    -3.648166  5.142861 -0.433212
  S    -4.324387  1.672809  3.426348
  S    -4.272408  5.271837  3.697383
