16  
    
  C     2.208170  4.394652  3.097966
  C     1.983846  8.277065  3.117318
  C     1.070723  4.100453  2.295401
  C     0.829242  7.636134  2.572351
  N     3.330953  4.306845  2.399030
  N     3.027793  8.284513  2.299609
  N     1.310513  3.753879  1.033124
  N     0.994578  7.200798  1.326581
  N     0.219705  4.479857  4.718014
  N     0.060841  8.513709  4.894883
  S    -0.373462  3.810090  3.193650
  S    -0.504175  7.532965  3.667218
  S     2.957914  4.010910  0.807617
  S     2.548453  7.464334  0.952748
  S     1.904760  4.714305  4.759347
  S     1.670038  9.040911  4.679961
