16  
    
  C     0.617300  3.773975  2.779488
  C     0.605242  7.677251  2.714775
  C    -0.645421  3.286072  2.176356
  C    -0.553128  6.968727  2.171316
  N     1.590989  3.912404  1.925379
  N     1.562207  7.885469  1.796159
  N    -0.645824  3.266419  0.845722
  N    -0.573095  6.661425  0.855411
  N    -0.961685  3.449665  4.773979
  N    -1.000790  7.328223  4.701001
  S    -1.821530  3.231859  3.361348
  S    -1.769873  6.631047  3.410131
  S     0.922094  3.740031  0.379985
  S     0.910029  7.278861  0.371335
  S     0.692215  3.609183  4.509422
  S     0.457260  8.044565  4.437058
