16  
    
  C    -1.517275  2.972051  1.986964
  C    -0.980967  6.953487  2.289022
  C    -2.573262  2.272246  1.357004
  C    -2.261690  6.592936  1.780795
  N    -0.556383  3.371772  1.193421
  N    -0.023413  7.152569  1.372661
  N    -2.404396  2.160118  0.058778
  N    -2.310086  6.328200  0.482480
  N    -3.296714  2.573901  3.810955
  N    -2.711876  6.709819  4.380127
  S    -3.866815  1.842032  2.436877
  S    -3.569993  6.669391  2.963295
  S    -0.940399  2.795811 -0.329743
  S    -0.772326  6.693523 -0.085314
  S    -1.867038  3.396082  3.678200
  S    -1.095126  7.117736  4.080321
