16  
    
  C    -5.386417  1.082498  1.561521
  C    -5.178205  4.502116  1.542655
  C    -6.639208  0.844732  0.889760
  C    -6.466907  4.191505  1.066298
  N    -4.388137  1.118886  0.669216
  N    -4.266505  4.622289  0.558722
  N    -6.548303  0.643599 -0.445366
  N    -6.519422  3.964228 -0.244071
  N    -7.163525  1.087781  3.470271
  N    -6.835221  4.643884  3.593318
  S    -7.965354  0.933918  1.989059
  S    -7.737643  4.215011  2.247844
  S    -4.994022  0.862458 -0.837709
  S    -4.990753  4.230865 -0.878450
  S    -5.465836  1.368773  3.283225
  S    -5.262851  4.963944  3.215689
