16  
    
  C     2.897782  4.992487  3.636510
  C     3.042227  8.608730  3.582197
  C     1.627233  5.051946  2.910522
  C     1.861040  8.355135  2.855636
  N     3.963687  5.038265  2.831706
  N     4.101553  8.611077  2.776591
  N     1.761401  4.798800  1.588451
  N     1.930129  8.247227  1.520847
  N     1.150478  5.272259  5.543005
  N     1.008399  8.725753  5.201954
  S     0.324288  5.108570  4.127049
  S     0.422628  8.344318  3.749693
  S     3.382563  4.917534  1.251818
  S     3.487579  8.352985  1.192382
  S     2.798835  5.239782  5.343015
  S     2.633299  9.047928  5.259739
