16  
    
  C    -3.316900  1.921602  2.029097
  C    -3.107579  5.465870  2.073864
  C    -4.523312  1.497634  1.387947
  C    -4.232976  4.841116  1.494022
  N    -2.357383  2.164052  1.136208
  N    -2.101227  5.807358  1.306258
  N    -4.424968  1.304023  0.081525
  N    -4.028564  4.612055  0.197113
  N    -5.003116  1.540064  3.967130
  N    -4.915391  5.183848  3.987669
  S    -5.806620  1.111406  2.538026
  S    -5.557096  4.488681  2.581758
  S    -2.877752  1.812307 -0.385020
  S    -2.570613  5.255337 -0.223954
  S    -3.308845  1.870581  3.799957
  S    -3.404374  5.811485  3.724254
