16  
    
  C    -0.005575  3.693039  2.464811
  C     0.378638  7.501258  2.753227
  C    -1.193988  2.989873  1.882978
  C    -0.800399  6.968881  2.122758
  N     0.962451  3.923628  1.593435
  N     1.426429  7.566024  1.930560
  N    -1.060206  2.680016  0.620518
  N    -0.688337  6.736614  0.824717
  N    -1.733469  3.495324  4.358900
  N    -1.477395  7.299890  4.623413
  S    -2.556051  2.897783  3.055224
  S    -2.169277  6.762231  3.209992
  S     0.454025  3.171963  0.194677
  S     0.836457  7.224891  0.325919
  S    -0.201646  4.032263  4.112730
  S     0.130479  7.735164  4.512979
