16  
    
  C     3.091608  5.140502  3.380233
  C     3.141347  8.992562  3.709371
  C     1.829403  4.810381  2.702069
  C     1.802725  8.643399  3.299959
  N     4.166567  5.022726  2.590817
  N     4.068057  8.848396  2.765308
  N     2.019695  4.602133  1.406767
  N     1.678753  8.359217  2.046451
  N     1.281970  5.011083  5.256729
  N     1.501133  9.408752  5.828728
  S     0.481661  4.563569  3.859929
  S     0.614842  8.775500  4.491404
  S     3.624738  4.809484  1.035240
  S     3.238105  8.203254  1.428493
  S     2.944250  5.230171  5.132569
  S     3.186292  9.394581  5.535198
