16  
    
  C     3.145545  5.197905  3.403112
  C     3.324395  9.191891  3.766405
  C     1.942708  4.681773  2.730553
  C     2.179910  8.855455  2.978028
  N     4.275620  5.177670  2.693821
  N     4.392034  9.421512  3.011941
  N     2.171563  4.473404  1.425805
  N     2.434532  8.694685  1.634436
  N     1.354464  4.931305  5.224162
  N     1.442396  8.747524  5.338335
  S     0.628801  4.478599  3.825025
  S     0.751117  8.722422  3.907533
  S     3.748697  4.821372  1.123995
  S     4.009526  8.938437  1.490290
  S     2.996407  5.262721  5.092628
  S     2.970549  9.282094  5.484243
