16  
    
  C    -4.713144  1.013924  1.432161
  C    -4.656174  4.647419  1.962449
  C    -5.953504  0.757819  0.736137
  C    -5.866083  4.270950  1.295512
  N    -3.614780  1.159227  0.628980
  N    -3.609875  4.797749  1.129479
  N    -5.781328  0.648132 -0.586025
  N    -5.744534  4.001067 -0.000536
  N    -6.618624  0.881210  3.256574
  N    -6.553188  4.552521  3.786579
  S    -7.327031  0.397525  1.853225
  S    -7.260636  4.084521  2.349153
  S    -4.205934  0.910818 -0.921965
  S    -4.217781  4.467197 -0.390551
  S    -4.919764  1.169135  3.186606
  S    -4.871560  4.924399  3.721284
