16  
    
  C     3.253958  4.993179  3.461876
  C     3.419226  9.031486  3.764113
  C     2.022910  4.599404  2.812661
  C     2.214342  8.827633  3.019299
  N     4.307430  5.041971  2.633301
  N     4.522661  9.157270  3.020487
  N     2.114740  4.536853  1.469701
  N     2.466652  8.711045  1.682861
  N     1.313361  5.162177  5.253082
  N     1.494582  9.169239  5.441300
  S     0.638153  4.719381  3.858925
  S     0.782494  8.817852  4.029187
  S     3.675536  4.789345  1.090559
  S     4.061423  8.928192  1.456656
  S     2.957912  5.215173  5.197344
  S     3.081803  9.219806  5.496164
