16  
    
  C     0.669889  3.609162  2.718616
  C     0.614440  7.643595  2.719017
  C    -0.653093  3.440209  2.141716
  C    -0.503887  7.030552  2.219156
  N     1.599909  3.881725  1.826094
  N     1.506920  7.978948  1.792237
  N    -0.614384  3.271101  0.811089
  N    -0.492907  6.817901  0.918135
  N    -0.922194  3.312151  4.726762
  N    -1.058497  7.345579  4.642232
  S    -1.944629  3.148916  3.382758
  S    -1.759101  6.629028  3.282608
  S     0.892333  3.721838  0.366922
  S     0.912106  7.382997  0.353839
  S     0.654702  3.512332  4.436686
  S     0.513505  7.922415  4.414684
