16  
    
  C     0.958175  4.001122  2.618879
  C     1.458597  7.884884  3.240471
  C    -0.158199  3.459743  1.866859
  C     0.138560  7.636032  2.563926
  N     1.977378  4.296026  1.815211
  N     2.486051  7.905192  2.371520
  N     0.161895  3.233170  0.586121
  N     0.206360  7.598819  1.218170
  N    -0.961150  3.705615  4.304797
  N    -0.335635  7.946352  5.140497
  S    -1.592264  3.245305  2.783535
  S    -1.225997  7.711369  3.708464
  S     1.648035  3.817942  0.299659
  S     1.845777  7.759476  0.893384
  S     0.609199  4.215753  4.288719
  S     1.330088  8.070316  4.971485
