16  
    
  C    -1.502624  2.951619  2.004477
  C    -1.113852  6.849420  2.249307
  C    -2.580443  2.271321  1.345059
  C    -2.359186  6.412308  1.707113
  N    -0.458245  3.170133  1.239231
  N    -0.161951  7.059053  1.376238
  N    -2.420963  2.007774  0.055529
  N    -2.354725  6.316821  0.380717
  N    -3.308833  2.455575  3.816234
  N    -2.698949  6.953582  4.230359
  S    -3.878778  1.691057  2.446696
  S    -3.616054  6.528513  2.908140
  S    -0.924811  2.675367 -0.286718
  S    -0.804252  6.644702 -0.114982
  S    -1.917056  3.328878  3.634022
  S    -1.072580  7.136761  4.003792
