16  
    
  C     0.124848  3.563584  2.688617
  C     0.321532  7.517279  2.677492
  C    -1.122924  3.050257  2.017411
  C    -0.929929  7.250908  2.049651
  N     1.147668  3.815890  1.858368
  N     1.319626  7.585554  1.809676
  N    -0.871290  2.716729  0.752711
  N    -0.875515  7.130542  0.729878
  N    -1.780930  3.295906  4.476077
  N    -1.493010  7.201708  4.529429
  S    -2.345448  2.507805  3.102146
  S    -2.256136  7.139296  3.070680
  S     0.643446  3.281363  0.355140
  S     0.765111  7.419349  0.226490
  S    -0.249789  3.982826  4.322166
  S     0.129572  7.460904  4.444499
