16  
    
  C    -1.275537  3.319168  2.119970
  C    -1.017252  6.859281  2.568134
  C    -2.352692  2.635749  1.531074
  C    -2.305573  6.676665  1.944214
  N    -0.355180  3.630045  1.208799
  N     0.025259  7.224355  1.775583
  N    -2.421876  2.707615  0.175106
  N    -2.219200  6.634720  0.585288
  N    -2.865380  2.890084  4.093153
  N    -2.771113  6.721408  4.530703
  S    -3.592566  2.227096  2.719877
  S    -3.669378  6.711215  3.121074
  S    -0.942973  3.261784 -0.307177
  S    -0.632116  7.021487  0.231181
  S    -1.384497  3.662487  3.805107
  S    -1.141992  6.957051  4.337947
