16  
    
  C    -5.133211  1.193450  1.757126
  C    -5.089353  4.978660  1.445008
  C    -6.299033  0.603277  1.148418
  C    -6.187025  4.371537  0.795097
  N    -4.117961  1.389293  0.932848
  N    -4.012374  5.078814  0.690621
  N    -6.051502  0.289197 -0.115746
  N    -5.988040  4.160246 -0.486080
  N    -6.920476  0.935349  3.591191
  N    -6.876911  4.588057  3.237155
  S    -7.585081  0.317666  2.286079
  S    -7.495682  4.026506  1.800694
  S    -4.512188  0.661288 -0.471706
  S    -4.365095  4.493991 -0.827825
  S    -5.379304  1.387014  3.503255
  S    -5.355608  5.262676  3.141022
