16  
    
  C     0.182476  3.478340  2.357436
  C     0.117546  7.307090  2.896687
  C    -1.022462  3.020738  1.717104
  C    -0.995240  6.814858  2.228780
  N     1.179684  3.653828  1.502492
  N     1.161213  7.376747  2.058005
  N    -0.946588  2.933566  0.404935
  N    -0.940668  6.649933  0.925960
  N    -1.508294  2.828111  4.183800
  N    -1.759372  7.151720  4.590018
  S    -2.372729  2.761770  2.806203
  S    -2.370724  6.477515  3.180520
  S     0.592881  3.478183 -0.023206
  S     0.629601  7.020701  0.567828
  S     0.062449  3.414403  4.041180
  S    -0.112571  7.650538  4.569594
