16  
    
  C    -2.654374  2.583849  2.193719
  C    -2.649731  6.336675  2.013447
  C    -3.743970  1.858385  1.657466
  C    -3.764217  5.768114  1.277601
  N    -1.676016  2.813753  1.322292
  N    -1.617237  6.650033  1.273190
  N    -3.686797  1.655755  0.341948
  N    -3.475255  5.537736 -0.031139
  N    -4.379669  2.348364  4.140854
  N    -4.543417  6.020132  3.711410
  S    -5.181574  1.749312  2.764672
  S    -5.057940  5.376069  2.298989
  S    -2.245421  2.345379 -0.123458
  S    -1.910616  6.166225 -0.290296
  S    -2.820211  2.857999  3.890527
  S    -2.956541  6.534231  3.711631
