16  
    
  C    -5.225381  1.057728  1.804559
  C    -5.168254  5.019242  1.328935
  C    -6.429818  0.612565  1.192369
  C    -6.349970  4.566695  0.661603
  N    -4.210068  1.282469  0.952649
  N    -4.074397  5.006432  0.600702
  N    -6.218421  0.230433 -0.055611
  N    -6.111229  4.176656 -0.570750
  N    -7.066925  1.030175  3.583796
  N    -6.945696  4.638374  3.130791
  S    -7.807697  0.447774  2.200022
  S    -7.687396  4.201245  1.703403
  S    -4.722682  0.765910 -0.512033
  S    -4.468346  4.424079 -0.911528
  S    -5.386071  1.352234  3.511833
  S    -5.389758  5.280241  3.017093
