16  
    
  C    -3.774004  1.974617  1.904389
  C    -3.505918  5.396505  1.882101
  C    -4.741360  1.042676  1.279725
  C    -4.783830  5.024106  1.342368
  N    -2.758059  2.369225  1.150971
  N    -2.527842  5.609783  1.015777
  N    -4.435326  0.742335  0.032973
  N    -4.755445  4.787022  0.029958
  N    -5.419588  1.333304  3.696825
  N    -5.298634  5.436147  3.799996
  S    -5.915252  0.530020  2.330889
  S    -6.108193  4.964528  2.492504
  S    -3.061007  1.589891 -0.319305
  S    -3.250891  5.128786 -0.455854
  S    -4.161894  2.407132  3.524223
  S    -3.667187  5.767229  3.548708
