16  
    
  C    -5.347049  0.970568  1.616013
  C    -5.185589  4.698882  1.480572
  C    -6.661953  0.846202  0.968160
  C    -6.468436  4.360006  0.901324
  N    -4.326058  1.112652  0.778345
  N    -4.210619  4.623946  0.609893
  N    -6.602905  0.657356 -0.343437
  N    -6.445679  3.980694 -0.364556
  N    -7.186139  1.070388  3.471147
  N    -6.785788  4.569137  3.433805
  S    -8.049483  0.934906  2.059724
  S    -7.718899  4.368395  2.052297
  S    -5.034201  0.904569 -0.739250
  S    -4.865159  4.164236 -0.820541
  S    -5.535315  1.326501  3.259922
  S    -5.201739  5.124394  3.180511
