16  
    
  C     3.012921  5.354504  3.838591
  C     2.623004  8.476414  3.124297
  C     1.717466  5.048284  3.309733
  C     1.303928  8.182991  2.592036
  N     3.992202  5.121583  2.959835
  N     3.615826  8.510538  2.252651
  N     1.710449  4.630773  2.038411
  N     1.316150  8.105182  1.278498
  N     1.248484  5.659726  5.808231
  N     1.028158  8.840726  5.003935
  S     0.382183  5.332641  4.415651
  S     0.102081  8.218888  3.841051
  S     3.292662  4.768186  1.511108
  S     2.952676  8.203363  0.804399
  S     2.897165  5.841370  5.580295
  S     2.648365  9.041526  4.796230
