16  
    
  C    -0.431318  3.411006  2.718771
  C    -0.328706  7.047926  2.537716
  C    -1.367791  2.492037  2.084923
  C    -1.499780  6.419147  1.864663
  N     0.628955  3.608614  1.943270
  N     0.744408  7.119690  1.741639
  N    -1.151776  2.212324  0.787848
  N    -1.188104  6.024966  0.616916
  N    -2.266823  3.071969  4.495331
  N    -2.156396  7.004291  4.297491
  S    -2.805946  2.306430  3.058132
  S    -2.859432  6.319702  2.956840
  S     0.369626  2.825037  0.484601
  S     0.312457  6.576437  0.274852
  S    -0.721793  3.722952  4.412705
  S    -0.575416  7.469826  4.135844
