16  
    
  C     1.977565  4.200250  3.088295
  C     2.005305  7.989601  3.105581
  C     0.618576  4.132452  2.506874
  C     0.768941  7.624088  2.422707
  N     2.983733  4.241793  2.214621
  N     3.104746  8.132939  2.343140
  N     0.684057  3.843230  1.226057
  N     0.890110  7.468570  1.089756
  N     0.217115  4.239267  5.020370
  N     0.200131  7.570076  4.920237
  S    -0.660359  3.973436  3.641080
  S    -0.559320  7.259545  3.468037
  S     2.316820  3.942629  0.707006
  S     2.526707  7.869253  0.788631
  S     1.860372  4.638864  4.789420
  S     1.761419  8.068737  4.861670
