16  
    
  C    -5.360169  1.157911  1.300286
  C    -5.472294  4.799976  1.574322
  C    -6.562920  0.662186  0.658495
  C    -6.735982  4.495746  0.911564
  N    -4.346526  1.475321  0.491877
  N    -4.428279  4.951952  0.750538
  N    -6.420243  0.423385 -0.649155
  N    -6.648457  4.313588 -0.422107
  N    -7.167865  0.833206  3.184760
  N    -7.237222  4.622134  3.507162
  S    -7.813177  0.076641  1.771299
  S    -8.027711  4.144356  2.091248
  S    -4.874386  0.986983 -1.030785
  S    -5.048688  4.617610 -0.783272
  S    -5.525431  1.210634  3.021080
  S    -5.603173  4.863740  3.359385
