16  
    
  C    -0.769755  3.158791  2.636588
  C    -1.251926  6.543621  2.569777
  C    -1.919332  2.559516  2.031953
  C    -2.418305  5.970938  1.886068
  N     0.300355  3.098329  1.854899
  N    -0.272258  6.957659  1.718230
  N    -1.805999  2.249606  0.718466
  N    -2.246350  5.822645  0.560945
  N    -2.512187  3.017231  4.443024
  N    -3.102371  5.995743  4.311959
  S    -3.310098  2.644106  3.095082
  S    -3.794052  5.560852  2.849608
  S    -0.247690  2.674202  0.334649
  S    -0.777445  6.450070  0.225094
  S    -0.917928  3.280041  4.383285
  S    -1.507126  6.576685  4.283477
