16  
    
  C     2.261830  4.668103  3.236381
  C     2.336012  8.899803  3.502219
  C     1.030983  4.267181  2.554264
  C     1.108845  8.461645  2.881812
  N     3.278158  4.933774  2.446244
  N     3.340508  8.991966  2.644428
  N     1.002571  4.446782  1.239124
  N     1.115649  8.251180  1.577557
  N     0.600148  4.241606  5.147248
  N     0.486346  8.577925  5.315811
  S    -0.181578  3.860889  3.709391
  S    -0.272052  8.256963  3.863761
  S     2.615127  4.867621  0.936523
  S     2.669513  8.599386  1.081180
  S     2.239407  4.755299  4.950477
  S     2.040166  9.070183  5.250648
