16  
    
  C    -5.228479  1.257409  1.773535
  C    -5.076673  5.063573  1.391174
  C    -6.307388  0.550026  1.140901
  C    -6.228598  4.481313  0.706102
  N    -4.129299  1.360984  0.989273
  N    -3.982189  5.098105  0.629887
  N    -6.159621  0.235549 -0.158752
  N    -6.027786  4.190567 -0.578925
  N    -6.965434  0.984221  3.647154
  N    -6.884310  4.589531  3.192254
  S    -7.638850  0.370697  2.221636
  S    -7.572922  4.070354  1.760737
  S    -4.605800  0.679542 -0.469746
  S    -4.434881  4.441739 -0.842239
  S    -5.366352  1.367920  3.535606
  S    -5.401042  5.257733  3.099414
