16  
    
  C    -4.840713  1.164155  1.630976
  C    -4.763138  4.892657  1.876446
  C    -5.926180  0.439409  1.028085
  C    -5.850804  4.171268  1.260056
  N    -3.809178  1.392304  0.772956
  N    -3.748300  5.024486  1.024629
  N    -5.735938  0.306334 -0.272931
  N    -5.673495  3.838336  0.003079
  N    -6.709744  0.859354  3.417562
  N    -6.523478  4.433601  3.669063
  S    -7.328279  0.133937  2.075691
  S    -7.196496  3.897471  2.273326
  S    -4.264454  0.874473 -0.713945
  S    -4.158678  4.393577 -0.464470
  S    -5.118669  1.408800  3.334109
  S    -4.984247  5.117706  3.610553
