16  
    
  C    -3.175250  1.914703  1.890153
  C    -3.205429  5.682159  2.108675
  C    -4.368327  1.534109  1.127364
  C    -4.421281  5.170485  1.452392
  N    -2.051190  2.014951  1.209481
  N    -2.280802  6.081268  1.293554
  N    -4.106585  1.353654 -0.159241
  N    -4.285732  5.073369  0.123932
  N    -5.192733  1.771903  3.639450
  N    -4.809645  5.281824  4.018928
  S    -5.713540  1.162841  2.164245
  S    -5.639360  4.838533  2.596634
  S    -2.459044  1.563544 -0.368187
  S    -2.790603  5.606695 -0.230870
  S    -3.547910  2.007615  3.571311
  S    -3.187531  5.820126  3.843788
