16  
    
  C     1.895170  4.594914  3.336963
  C     1.687026  7.671167  3.084631
  C     0.774556  3.947406  2.661714
  C     0.433268  7.383237  2.340147
  N     2.924933  4.819851  2.520831
  N     2.710356  7.919955  2.267625
  N     0.891578  3.927655  1.318678
  N     0.478459  7.396698  1.003603
  N     0.340605  4.013917  5.280242
  N    -0.211765  7.530780  4.858485
  S    -0.461034  3.718034  3.794154
  S    -0.952295  7.388584  3.358893
  S     2.391411  4.626697  0.977022
  S     2.111507  7.766783  0.741154
  S     1.906216  4.448394  5.058988
  S     1.463637  7.675221  4.814053
