16  
    
  C     0.574417  3.646636  2.971003
  C     0.962766  7.580771  2.625618
  C    -0.530992  3.107052  2.166350
  C    -0.271205  6.995870  1.955562
  N     1.511811  4.274964  2.233111
  N     1.929016  8.028321  1.839185
  N    -0.203291  2.950053  0.913050
  N    -0.192668  7.110970  0.619192
  N    -1.473358  3.171972  4.524860
  N    -0.706509  6.885642  4.500419
  S    -1.922497  2.545658  3.045552
  S    -1.494963  6.471054  3.055927
  S     1.302677  3.677020  0.665680
  S     1.307644  7.813334  0.339055
  S     0.040409  3.759164  4.622588
  S     0.888744  7.512393  4.360899
