16  
    
  C     2.031559  4.624938  3.278687
  C     1.611102  7.924396  3.058502
  C     0.855858  3.986099  2.694598
  C     0.440339  7.466855  2.346595
  N     3.062653  4.620801  2.403770
  N     2.663473  8.174918  2.275489
  N     0.905229  3.966161  1.328670
  N     0.501405  7.432986  1.015464
  N     0.263479  4.281768  5.215330
  N    -0.315453  7.636637  4.817396
  S    -0.498998  3.727634  3.854293
  S    -0.941833  7.037025  3.354789
  S     2.465930  4.322034  0.911896
  S     2.090853  7.824466  0.737267
  S     1.848126  4.938063  4.936132
  S     1.264797  8.127036  4.762112
