16  
    
  C    -0.164986  3.295597  2.609997
  C    -0.106419  7.034421  2.500395
  C    -1.257764  2.546493  1.972727
  C    -1.368384  6.596421  1.788205
  N     0.766281  3.746369  1.783185
  N     0.975451  7.267857  1.763143
  N    -1.000423  2.240871  0.701449
  N    -1.204620  6.664840  0.461459
  N    -1.918703  2.830471  4.438059
  N    -1.818214  6.535883  4.302935
  S    -2.598141  2.308956  3.013180
  S    -2.590595  6.079345  2.852919
  S     0.409180  3.034806  0.317162
  S     0.341428  7.195124  0.215244
  S    -0.401143  3.478245  4.310702
  S    -0.164814  6.923587  4.194026
