16  
    
  C    -4.261531  1.734441  1.894184
  C    -4.309572  5.209783  1.753385
  C    -5.401670  1.136671  1.284907
  C    -5.577654  4.693459  1.191027
  N    -3.180618  1.694917  1.144671
  N    -3.349919  5.250928  0.856925
  N    -5.287810  0.685760  0.062926
  N    -5.531131  4.539249 -0.129096
  N    -6.056847  1.462950  3.765424
  N    -5.979402  5.084500  3.663938
  S    -6.815664  0.990058  2.300870
  S    -6.878963  4.658177  2.295957
  S    -3.616282  0.967753 -0.261972
  S    -3.985406  4.790054 -0.590311
  S    -4.520837  2.164435  3.515234
  S    -4.410290  5.648267  3.433500
