16  
    
  C    -3.849724  1.576340  1.766692
  C    -3.993220  5.529250  1.885679
  C    -5.102439  1.269399  1.135735
  C    -5.136281  5.160057  1.173005
  N    -2.823727  1.629071  0.922703
  N    -2.916690  5.862331  1.156619
  N    -5.083092  1.186823 -0.181638
  N    -4.963572  5.281334 -0.128894
  N    -5.541542  1.476316  3.668045
  N    -5.825745  4.781650  3.582309
  S    -6.415005  1.325270  2.223025
  S    -6.591273  4.709169  2.022426
  S    -3.452490  1.447605 -0.600926
  S    -3.394633  5.662973 -0.397075
  S    -3.887506  1.737326  3.494213
  S    -4.169707  5.144403  3.572642
