16  
    
  C    -1.753442  2.387532  1.928212
  C    -1.700584  6.260920  2.140822
  C    -2.973772  2.035356  1.266866
  C    -2.902287  5.851484  1.548785
  N    -0.696291  2.470228  1.131542
  N    -0.632154  6.351676  1.370530
  N    -2.836999  1.810986 -0.024661
  N    -2.772049  5.658397  0.262046
  N    -3.566476  2.144454  3.788158
  N    -3.623811  6.193992  3.843943
  S    -4.337644  1.923163  2.302799
  S    -4.281372  5.581986  2.434894
  S    -1.250999  2.186263 -0.383822
  S    -1.196137  5.932122 -0.200774
  S    -1.891328  2.363744  3.694434
  S    -2.009089  6.711981  3.790208
