16  
    
  C    -4.139813  1.493880  1.887055
  C    -3.938992  5.219738  1.968485
  C    -5.462412  1.145168  1.342242
  C    -5.157599  4.652482  1.390513
  N    -3.105286  1.486359  1.064628
  N    -2.867263  5.163091  1.185262
  N    -5.331112  0.932336  0.057823
  N    -5.085226  4.310128  0.110756
  N    -5.824873  1.421209  3.864790
  N    -5.660014  5.368365  3.803002
  S    -6.698156  0.984282  2.469669
  S    -6.441652  4.712085  2.499243
  S    -3.819247  1.105758 -0.370457
  S    -3.472309  4.475461 -0.223090
  S    -4.210349  1.782217  3.572369
  S    -4.066401  5.735161  3.567090
