16  
    
  C     2.366150  4.757992  3.325702
  C     2.361263  8.629241  3.531524
  C     1.098421  4.486935  2.671688
  C     1.144643  8.354895  2.875521
  N     3.349671  5.094544  2.464940
  N     3.391587  8.801468  2.689351
  N     1.269725  4.268349  1.362638
  N     1.215479  8.373812  1.546270
  N     0.558141  4.231681  5.226544
  N     0.626209  8.768108  5.390822
  S    -0.158649  3.837129  3.726434
  S    -0.149205  8.112144  4.019681
  S     2.775058  4.740598  0.892659
  S     2.828241  8.646053  1.121419
  S     2.193313  4.711409  5.069119
  S     2.288238  9.039769  5.178330
