16  
    
  C    -5.387715  1.000556  1.563985
  C    -5.148709  4.666786  1.501907
  C    -6.666174  0.718813  0.948800
  C    -6.444072  4.229454  0.969225
  N    -4.320120  1.110326  0.757980
  N    -4.160044  4.589568  0.595057
  N    -6.658467  0.667901 -0.377609
  N    -6.490516  3.963523 -0.339907
  N    -7.138216  1.065730  3.431353
  N    -6.798594  4.505937  3.471666
  S    -7.978086  0.973340  2.057610
  S    -7.734638  4.325254  2.117533
  S    -5.001444  0.911823 -0.785854
  S    -4.951732  4.187092 -0.838596
  S    -5.556603  1.358319  3.280456
  S    -5.210750  5.105275  3.221830
