16  
    
  C    -3.140531  2.152591  1.682783
  C    -3.073626  5.889379  1.996568
  C    -4.260513  1.619810  1.002223
  C    -4.323852  5.446138  1.412623
  N    -2.075941  2.441715  0.946023
  N    -2.157817  6.117481  1.062529
  N    -4.041882  1.407769 -0.270856
  N    -4.361875  5.425159  0.106780
  N    -4.990024  1.603832  3.436587
  N    -4.614576  5.425359  3.996440
  S    -5.468409  0.958931  2.035781
  S    -5.537482  5.312362  2.689558
  S    -2.478777  1.950625 -0.599324
  S    -2.841650  5.708958 -0.448191
  S    -3.478549  2.201295  3.431602
  S    -3.034819  6.011054  3.791430
