16  
    
  C    -1.450051  3.403347  2.035988
  C    -0.979073  6.955993  2.494917
  C    -2.515852  2.616953  1.392332
  C    -2.298616  6.794641  1.899676
  N    -0.552645  3.812194  1.165636
  N     0.002213  6.936669  1.615366
  N    -2.392154  2.371765  0.087321
  N    -2.207681  6.825240  0.594571
  N    -3.092332  2.775169  3.916474
  N    -2.700385  6.745852  4.449683
  S    -3.804076  2.190794  2.516689
  S    -3.572103  6.610664  3.090920
  S    -0.901575  3.087068 -0.316630
  S    -0.619661  6.868491  0.069813
  S    -1.605231  3.505731  3.768910
  S    -1.099715  7.063054  4.233759
