16  
    
  C    -0.840437  3.190643  2.377476
  C    -0.826402  6.409638  2.453493
  C    -2.038717  2.626186  1.872476
  C    -2.032423  6.029782  1.747076
  N     0.223903  3.205558  1.553362
  N     0.261396  6.572368  1.722313
  N    -1.929865  2.433842  0.541420
  N    -1.777177  5.777777  0.458556
  N    -2.421182  2.790811  4.345856
  N    -2.710466  6.394932  4.220837
  S    -3.327122  2.608357  3.012280
  S    -3.448626  5.844237  2.849068
  S    -0.422845  2.888561  0.071079
  S    -0.122630  6.200887  0.149153
  S    -0.850504  3.266767  4.165733
  S    -1.090640  6.628850  4.145080
