16  
    
  C     2.953516  5.111242  3.594218
  C     3.094089  8.628987  3.560981
  C     1.687383  4.977763  2.946378
  C     1.828105  8.416278  2.833427
  N     4.009653  5.186445  2.773210
  N     4.186330  8.556486  2.749934
  N     1.777783  4.901630  1.616415
  N     1.939067  8.244888  1.552468
  N     1.117605  5.108060  5.482412
  N     0.954630  8.754691  5.244292
  S     0.296893  5.060409  4.072082
  S     0.379993  8.244977  3.719779
  S     3.426891  4.907265  1.255548
  S     3.548705  8.427645  1.229965
  S     2.763530  5.234084  5.386441
  S     2.646222  9.018432  5.268422
