16  
    
  C     3.022836  5.071412  3.296326
  C     3.091703  9.078473  3.905803
  C     1.814581  4.783191  2.565898
  C     1.854809  8.575517  3.357493
  N     4.117013  5.204014  2.539961
  N     4.060649  9.161211  2.967516
  N     2.039160  4.544955  1.290321
  N     1.798561  8.320961  2.032679
  N     1.103674  5.037813  5.097687
  N     1.233511  8.902878  5.786432
  S     0.460005  4.612951  3.635029
  S     0.485403  8.586102  4.318727
  S     3.666533  4.781279  0.990749
  S     3.311782  8.745827  1.466000
  S     2.761992  5.263239  5.032692
  S     2.839580  9.370961  5.647855
