16  
    
  C    -1.740423  2.322490  1.991336
  C    -1.764850  6.224170  2.094604
  C    -2.920869  2.021130  1.266671
  C    -2.949853  5.781008  1.401753
  N    -0.683369  2.523076  1.223777
  N    -0.670953  6.239887  1.315464
  N    -2.791279  1.823141 -0.028230
  N    -2.792532  5.557195  0.081037
  N    -3.590175  1.980346  3.751809
  N    -3.604686  6.100092  3.957464
  S    -4.400480  1.952107  2.321273
  S    -4.352130  5.662629  2.522358
  S    -1.186135  2.105726 -0.355568
  S    -1.232497  5.960158 -0.224928
  S    -2.002728  2.374849  3.677603
  S    -1.993064  6.510869  3.863829
