16  
    
  C    -3.821722  1.589830  1.745080
  C    -3.956946  5.441930  1.919337
  C    -5.121487  1.233960  1.111066
  C    -5.202041  5.166634  1.133552
  N    -2.793195  1.588775  0.926728
  N    -2.933400  5.868325  1.173166
  N    -5.039524  1.146943 -0.223697
  N    -5.000801  5.288569 -0.175660
  N    -5.584976  1.488920  3.647891
  N    -5.851671  4.896269  3.591816
  S    -6.492418  1.363000  2.266850
  S    -6.611763  4.722292  2.111915
  S    -3.474956  1.378610 -0.685792
  S    -3.395745  5.675604 -0.390117
  S    -3.967262  1.716698  3.482587
  S    -4.183057  5.090404  3.577151
