16  
    
  C    -1.821857  2.366274  2.394685
  C    -1.766790  6.223816  2.251265
  C    -3.017234  1.875047  1.767510
  C    -3.020012  5.752709  1.723851
  N    -0.753864  2.586629  1.636127
  N    -0.780680  6.318620  1.372152
  N    -2.850421  1.736087  0.472578
  N    -2.970434  5.450803  0.447349
  N    -3.666560  2.147874  4.231339
  N    -3.439471  5.740239  4.321147
  S    -4.362350  1.685101  2.813805
  S    -4.301542  5.331528  2.946216
  S    -1.318353  2.235244  0.069459
  S    -1.501663  5.936279 -0.099592
  S    -2.072400  2.596028  4.139833
  S    -1.948983  6.459328  4.029606
