16  
    
  C     0.984629  4.264422  2.609319
  C     1.136036  7.923242  3.143493
  C    -0.022322  3.402042  2.004172
  C    -0.148398  7.553346  2.518305
  N     2.061473  4.309835  1.786522
  N     2.145771  8.042094  2.290606
  N     0.164269  3.134110  0.696545
  N     0.020803  7.272975  1.234334
  N    -0.870411  4.183575  4.311300
  N    -0.549797  7.837399  5.065740
  S    -1.400288  3.241326  3.004021
  S    -1.409267  7.536875  3.673262
  S     1.707412  3.535585  0.374566
  S     1.635298  7.609138  0.823277
  S     0.703552  4.659740  4.330348
  S     1.053722  8.123046  4.861485
