16  
    
  C     1.194094  4.475637  3.156532
  C     1.645031  8.081156  3.068427
  C    -0.003986  3.975703  2.586594
  C     0.376197  7.959825  2.405521
  N     2.196217  4.618865  2.292394
  N     2.681575  7.982296  2.225643
  N    -0.098852  4.113239  1.253807
  N     0.427979  7.716434  1.107800
  N    -0.383615  4.183405  5.192011
  N    -0.177036  8.222777  4.891998
  S    -1.247567  3.808559  3.768139
  S    -0.985026  8.180639  3.432483
  S     1.517731  4.412484  0.746004
  S     2.070731  7.800064  0.737932
  S     1.174401  4.601711  4.867914
  S     1.506739  8.310273  4.752828
