16  
    
  C    -4.093249  1.431956  1.680254
  C    -4.096775  5.234777  1.931529
  C    -5.326798  1.206643  0.998201
  C    -5.394344  5.092296  1.240720
  N    -2.984003  1.259314  0.950236
  N    -3.048929  5.242877  1.121853
  N    -5.203451  1.145638 -0.337742
  N    -5.284721  5.146117 -0.105411
  N    -5.940964  1.567724  3.560635
  N    -5.913851  4.828033  3.833400
  S    -6.722155  1.325154  2.118027
  S    -6.662445  4.922997  2.356284
  S    -3.561314  1.125742 -0.686259
  S    -3.635186  5.262467 -0.403420
  S    -4.281010  1.675334  3.381613
  S    -4.281479  5.265391  3.697284
