16  
    
  C    -2.781550  2.688959  2.353732
  C    -2.684903  5.896629  1.996742
  C    -3.805392  1.899152  1.729476
  C    -3.838210  5.528673  1.272334
  N    -1.808085  3.019918  1.503536
  N    -1.647244  6.161965  1.219958
  N    -3.745074  1.828443  0.370976
  N    -3.689076  5.479444 -0.077958
  N    -4.383349  2.070218  4.266550
  N    -4.518354  5.418576  3.805752
  S    -4.994302  1.360010  2.849629
  S    -5.210624  5.104748  2.312135
  S    -2.241181  2.484268  0.034682
  S    -2.125533  6.116798 -0.360622
  S    -2.843273  2.731187  4.086971
  S    -2.998390  6.108148  3.665869
