16  
    
  C     0.994616  4.043472  2.651439
  C     1.580779  8.627198  3.101031
  C    -0.184055  3.655590  1.902417
  C     0.375181  8.215745  2.481061
  N     2.070201  4.401732  1.945626
  N     2.547392  8.798818  2.219697
  N     0.020259  3.431677  0.603698
  N     0.410083  8.146275  1.184364
  N    -0.926460  3.816221  4.393519
  N    -0.126414  8.274881  4.926296
  S    -1.546939  3.132405  2.949718
  S    -0.967957  8.001513  3.527258
  S     1.595766  4.045566  0.324409
  S     1.984977  8.427548  0.687877
  S     0.618097  4.402529  4.338800
  S     1.427396  8.801859  4.798981
