16  
    
  C    -4.186776  1.365584  1.879890
  C    -4.100498  4.976276  2.010652
  C    -5.445477  1.225955  1.247689
  C    -5.351593  4.724321  1.437657
  N    -3.078515  1.467154  1.141813
  N    -3.106572  5.038209  1.153219
  N    -5.334203  1.046022 -0.050530
  N    -5.316690  4.437769  0.136060
  N    -6.007856  1.466089  3.624976
  N    -5.754461  5.320287  3.831102
  S    -6.828196  1.182423  2.223793
  S    -6.657342  4.968659  2.524288
  S    -3.675301  1.193338 -0.397940
  S    -3.717369  4.599652 -0.256054
  S    -4.361691  1.530780  3.584605
  S    -4.129546  5.571998  3.592561
