16  
    
  C    -5.543270  0.913016  1.476201
  C    -5.428698  4.902135  1.231823
  C    -6.740366  0.412858  0.834891
  C    -6.638635  4.271311  0.678073
  N    -4.498031  0.984318  0.657100
  N    -4.459052  5.136671  0.338724
  N    -6.649342  0.261961 -0.516469
  N    -6.598091  4.136944 -0.669648
  N    -7.343052  0.853983  3.236760
  N    -6.872044  4.322974  3.213249
  S    -8.099302  0.210304  1.935559
  S    -7.801922  3.934125  1.910788
  S    -5.062679  0.603322 -0.835606
  S    -5.087074  4.642292 -1.091071
  S    -5.725022  1.011345  3.184128
  S    -5.401055  5.029705  2.912983
