16  
    
  C    -4.585152  0.967392  1.654667
  C    -4.793562  4.537466  1.582682
  C    -5.801854  0.729267  0.951842
  C    -6.034281  4.326048  0.874988
  N    -3.553804  1.135063  0.872709
  N    -3.767088  4.880754  0.831770
  N    -5.711123  0.780626 -0.394899
  N    -5.870121  4.387104 -0.455388
  N    -6.331979  0.687453  3.584655
  N    -6.637513  4.295503  3.436700
  S    -7.073171  0.545353  2.103807
  S    -7.375454  3.974154  1.969676
  S    -4.047530  1.207950 -0.729083
  S    -4.284073  4.921185 -0.734569
  S    -4.674691  1.001434  3.411190
  S    -5.012784  4.461900  3.236058
