16  
    
  C     2.977996  5.339184  3.783894
  C     2.649837  8.534853  3.146544
  C     1.672947  5.102277  3.239712
  C     1.374971  8.262318  2.589033
  N     3.972543  5.181527  2.923063
  N     3.701089  8.474379  2.314680
  N     1.630263  4.737386  1.959500
  N     1.433674  8.001218  1.283282
  N     1.312221  5.500315  5.759354
  N     1.030055  9.009008  5.144717
  S     0.414311  5.429448  4.380368
  S     0.168422  8.313918  3.900301
  S     3.201573  4.635441  1.499055
  S     3.016938  8.260666  0.866445
  S     2.950805  5.694312  5.508012
  S     2.683257  9.089864  4.753652
