16  
    
  C    -5.225602  1.021370  1.793242
  C    -5.205830  4.902323  1.299777
  C    -6.438866  0.474287  1.147399
  C    -6.369566  4.388881  0.630946
  N    -4.191990  1.215011  0.974264
  N    -4.089331  4.897396  0.595848
  N    -6.347909  0.346621 -0.159889
  N    -6.157446  4.141185 -0.657115
  N    -7.077884  1.052342  3.595690
  N    -6.960559  4.790351  3.144458
  S    -7.891741  0.542060  2.245775
  S    -7.748750  4.344052  1.725841
  S    -4.800085  0.810353 -0.553308
  S    -4.537379  4.455981 -0.920467
  S    -5.497232  1.330629  3.467363
  S    -5.393441  5.282341  3.001675
