16  
    
  C    -0.771226  2.936622  2.507517
  C    -1.147007  6.493431  2.500046
  C    -1.972080  2.618369  1.836919
  C    -2.263681  5.904584  1.824074
  N     0.272756  2.962375  1.715512
  N    -0.129985  6.758236  1.692659
  N    -1.867157  2.425232  0.537395
  N    -2.155712  5.863989  0.511924
  N    -2.474103  2.794488  4.366373
  N    -2.944498  6.032639  4.392901
  S    -3.299244  2.414384  3.010061
  S    -3.675785  5.613899  2.914184
  S    -0.264765  2.745220  0.187637
  S    -0.489873  6.246099  0.127719
  S    -0.910711  3.275600  4.182168
  S    -1.390332  6.563824  4.224403
