16  
    
  C     0.650990  3.861123  3.211640
  C     1.150403  7.576754  2.838876
  C    -0.500851  3.343372  2.459311
  C    -0.019167  7.027281  2.114159
  N     1.741234  4.049185  2.471448
  N     2.197956  7.666947  2.032055
  N    -0.292497  3.263287  1.119882
  N     0.213915  6.884865  0.829548
  N    -1.160837  3.157483  4.903977
  N    -0.755244  7.263109  4.589123
  S    -1.874600  2.889735  3.438278
  S    -1.370376  6.742456  3.132037
  S     1.231256  3.845593  0.890354
  S     1.798615  7.199142  0.457977
  S     0.468570  3.644002  4.908070
  S     0.797999  7.885621  4.486223
