16  
    
  C     3.183323  4.903359  3.545798
  C     3.500326  8.952104  3.663223
  C     1.881079  4.634416  2.931238
  C     2.124943  8.809187  3.229789
  N     4.152363  5.123303  2.683503
  N     4.370017  8.585333  2.750821
  N     1.941060  4.425368  1.628948
  N     1.990022  8.328082  2.013854
  N     1.408040  5.001908  5.395855
  N     1.749307  9.348219  5.720107
  S     0.593008  4.698129  4.000941
  S     0.827550  9.061013  4.303361
  S     3.505078  4.694214  1.177946
  S     3.436249  8.227554  1.402739
  S     3.060980  5.393432  5.181066
  S     3.435523  9.180931  5.433236
