16  
    
  C     0.848259  3.909375  2.499369
  C     1.515464  8.114019  3.255339
  C    -0.316877  3.317955  1.874847
  C     0.233202  7.995526  2.605238
  N     1.843232  4.118813  1.675215
  N     2.584838  8.265087  2.449769
  N    -0.244831  3.248546  0.526596
  N     0.337019  7.862939  1.283651
  N    -0.782884  3.661918  4.393829
  N    -0.211787  8.040071  5.188278
  S    -1.615424  3.179031  3.006520
  S    -1.085895  7.962103  3.771845
  S     1.319008  3.648660  0.151005
  S     1.897511  8.137203  0.892981
  S     0.757202  4.192803  4.258641
  S     1.477500  8.120949  5.053840
