16  
    
  C    -3.483300  1.753925  1.741990
  C    -3.637162  5.703972  1.812165
  C    -4.537733  0.937491  1.221339
  C    -4.876784  5.380496  1.050280
  N    -2.501043  2.092100  0.918271
  N    -2.610865  5.887869  1.028951
  N    -4.346713  0.686185 -0.049961
  N    -4.697521  5.235310 -0.267265
  N    -5.293845  1.523016  3.618402
  N    -5.342326  5.121198  3.550964
  S    -5.926262  0.754891  2.310983
  S    -6.177056  4.937002  2.104700
  S    -2.920761  1.408732 -0.540378
  S    -3.163408  5.662579 -0.589048
  S    -3.782325  2.124167  3.480394
  S    -3.783267  5.714051  3.544346
