16  
    
  C     0.709272  3.908923  2.959351
  C     0.674375  7.607750  2.728365
  C    -0.532836  3.497663  2.286225
  C    -0.550549  6.903006  2.280019
  N     1.705679  4.003345  2.118278
  N     1.548231  7.786077  1.726403
  N    -0.422806  3.278690  0.993714
  N    -0.478806  6.459311  1.005925
  N    -1.046462  3.720120  4.801593
  N    -0.986595  7.383604  4.775883
  S    -1.781403  3.178332  3.443513
  S    -1.745216  6.658088  3.438340
  S     1.195284  3.473705  0.627472
  S     0.953793  7.097619  0.355592
  S     0.501276  4.284381  4.623580
  S     0.575058  7.981083  4.479488
