16  
    
  C     0.099053  3.302258  2.503953
  C    -0.013028  7.184528  2.733902
  C    -1.173157  2.974251  1.754747
  C    -1.219511  6.696605  2.006348
  N     1.158741  3.559603  1.714969
  N     1.023730  7.462603  1.967741
  N    -0.925377  2.761593  0.464530
  N    -1.102235  6.649938  0.672017
  N    -1.720620  2.976152  4.254244
  N    -1.716090  6.711993  4.542939
  S    -2.394683  2.316719  2.865458
  S    -2.577591  6.466923  3.088793
  S     0.595658  3.312267  0.157168
  S     0.461582  7.134517  0.419153
  S    -0.185357  3.499592  4.150529
  S    -0.133207  7.221670  4.432373
