16  
    
  C     0.969682  3.968622  2.606040
  C     1.358936  7.888466  3.203137
  C    -0.109245  3.428745  1.814584
  C     0.116828  7.681681  2.576937
  N     1.984596  4.410625  1.917499
  N     2.419408  7.947932  2.397228
  N     0.140914  3.186460  0.546972
  N     0.216794  7.465525  1.258870
  N    -0.986093  3.762000  4.201625
  N    -0.421742  7.959872  5.068864
  S    -1.541904  3.247949  2.794635
  S    -1.214065  7.705852  3.689823
  S     1.717901  3.795693  0.339580
  S     1.781430  7.731812  0.803932
  S     0.637435  4.338115  4.327244
  S     1.235123  8.103765  4.973803
