16  
    
  C    -5.436743  1.208995  1.631196
  C    -5.159177  4.843473  1.373752
  C    -6.691840  0.932459  0.926832
  C    -6.448350  4.416034  0.793218
  N    -4.389439  1.088348  0.843826
  N    -4.085649  4.737590  0.574086
  N    -6.698229  0.743257 -0.382561
  N    -6.346963  4.096236 -0.498688
  N    -7.193225  1.078965  3.464802
  N    -6.920687  4.954429  3.352241
  S    -8.010783  0.810439  2.094138
  S    -7.770345  4.427981  2.044670
  S    -4.989396  0.789969 -0.720054
  S    -4.730343  4.156028 -0.858479
  S    -5.546482  1.256875  3.405912
  S    -5.261934  5.059568  3.104557
