16  
    
  C     0.595259  3.811094  3.163262
  C     1.026750  7.528262  2.692035
  C    -0.380797  3.079543  2.345593
  C    -0.100897  7.045021  2.036848
  N     1.690078  4.212148  2.474233
  N     2.094718  7.802058  1.979985
  N    -0.252460  3.274221  1.030959
  N     0.117514  6.902445  0.732400
  N    -1.344024  2.996624  4.746667
  N    -0.649284  7.039166  4.484838
  S    -1.873943  2.698122  3.243498
  S    -1.412837  6.600167  3.082868
  S     1.300239  3.848893  0.840441
  S     1.648634  7.414635  0.396225
  S     0.174548  3.742144  4.845047
  S     0.880782  7.709711  4.404726
