16  
    
  C    -0.225363  3.155640  2.671010
  C    -0.171863  6.994277  2.402611
  C    -1.415225  2.506173  2.043810
  C    -1.351002  6.403141  1.679400
  N     0.716349  3.282406  1.733354
  N     0.853990  7.325573  1.615532
  N    -1.453229  2.589753  0.713963
  N    -1.099074  6.217033  0.379029
  N    -1.915003  2.867123  4.595449
  N    -1.868718  6.442528  4.188080
  S    -2.691583  2.310994  3.180931
  S    -2.631783  5.975470  2.771726
  S     0.103194  2.927212  0.244103
  S     0.371517  6.921394  0.093880
  S    -0.334492  3.468342  4.374316
  S    -0.350998  7.122865  4.047769
