16  
    
  C    -4.843108  0.997904  1.713600
  C    -4.727606  4.703596  1.805882
  C    -5.982965  0.400596  1.067622
  C    -5.866958  4.045654  1.134318
  N    -3.815450  1.357984  0.931304
  N    -3.761000  5.108186  0.966356
  N    -5.856127  0.210013 -0.232318
  N    -5.710500  3.833518 -0.171660
  N    -6.775997  0.953863  3.503868
  N    -6.634707  4.568455  3.576379
  S    -7.310180  0.105575  2.130609
  S    -7.236589  3.895394  2.157535
  S    -4.336052  0.861492 -0.610185
  S    -4.252783  4.501806 -0.505770
  S    -5.226297  1.476876  3.364880
  S    -5.095045  5.170216  3.470278
