16  
    
  C     1.436597  4.356092  3.396562
  C     1.416305  7.968440  3.107382
  C     0.116334  4.176505  2.896638
  C     0.144623  7.817691  2.396946
  N     2.375969  4.504653  2.444367
  N     2.492213  7.980342  2.316462
  N     0.056943  3.940954  1.581310
  N     0.265506  7.707558  1.080168
  N    -0.054574  4.651455  5.424889
  N    -0.461239  7.916187  4.927446
  S    -1.041968  4.164646  4.181779
  S    -1.166366  7.580302  3.483474
  S     1.585406  4.246531  1.065579
  S     1.869198  7.787890  0.754115
  S     1.535654  4.782924  5.121824
  S     1.182987  8.167930  4.871424
