16  
    
  C     2.864920  5.213483  3.804479
  C     2.413921  8.502353  3.441029
  C     1.673522  4.598588  3.269943
  C     1.309189  7.944870  2.714374
  N     3.857600  5.380251  2.939001
  N     3.462026  8.777074  2.627451
  N     1.856076  4.117259  2.035084
  N     1.438306  7.872632  1.389809
  N     1.232867  5.055223  5.768639
  N     0.369258  8.508484  4.970917
  S     0.292787  4.701471  4.508098
  S    -0.135821  7.557979  3.688327
  S     3.317396  4.730940  1.503753
  S     2.971705  8.303396  1.117793
  S     2.726942  5.715732  5.509620
  S     1.938976  8.935768  5.109170
