16  
    
  C     1.871120  4.261093  3.203034
  C     1.795734  7.854147  3.046374
  C     0.616182  3.866951  2.663181
  C     0.602465  7.418375  2.432046
  N     2.924666  4.294963  2.330882
  N     2.777860  8.220560  2.260360
  N     0.645658  3.902054  1.306115
  N     0.755714  7.426255  1.104508
  N     0.103933  4.211103  5.188278
  N     0.200682  7.412132  4.999360
  S    -0.744966  4.055834  3.717583
  S    -0.642525  7.089564  3.592619
  S     2.190961  4.131582  0.815217
  S     2.192741  8.089043  0.727538
  S     1.819956  4.187513  4.984204
  S     1.834955  7.824070  4.758964
