16  
    
  C     0.188512  3.289731  2.376649
  C     0.069485  7.263432  2.799393
  C    -1.016393  2.948413  1.700567
  C    -1.120472  6.881847  2.106651
  N     1.185520  3.693904  1.587465
  N     1.182300  7.380364  2.048113
  N    -0.974671  2.980602  0.367815
  N    -0.999098  6.675839  0.805673
  N    -1.565183  2.845522  4.246084
  N    -1.770484  7.032316  4.642796
  S    -2.334825  2.593863  2.753620
  S    -2.448600  6.459411  3.226339
  S     0.580305  3.372573  0.011447
  S     0.599149  7.047547  0.443380
  S    -0.022176  3.467361  4.160406
  S    -0.199203  7.480680  4.549710
