16  
    
  C    -0.718588  3.022184  2.456485
  C    -0.865904  6.311086  2.487357
  C    -1.986198  2.685279  1.849221
  C    -2.013509  5.859615  1.761034
  N     0.224286  3.315653  1.545973
  N     0.209083  6.555612  1.726365
  N    -1.938005  2.392475  0.525693
  N    -1.837086  5.870853  0.401337
  N    -2.437683  2.742024  4.416579
  N    -2.849699  6.409866  4.239022
  S    -3.252527  2.565003  2.962913
  S    -3.508241  5.742966  2.889473
  S    -0.393659  2.818369  0.060405
  S    -0.245984  6.193046  0.159161
  S    -0.833422  3.240834  4.175059
  S    -1.192528  6.637129  4.199651
