16  
    
  C     0.267278  3.559364  2.824954
  C     0.292776  7.473119  2.694120
  C    -0.936502  3.064431  2.097155
  C    -1.002227  7.351187  2.031373
  N     1.214271  4.042343  1.994935
  N     1.352731  7.431234  1.877540
  N    -0.701755  2.896577  0.777740
  N    -0.933636  7.437531  0.700529
  N    -1.619912  2.990466  4.571033
  N    -1.397733  7.418623  4.631971
  S    -2.334109  2.689128  3.111052
  S    -2.296751  7.301079  3.284388
  S     0.773081  3.494910  0.486898
  S     0.659696  7.618617  0.348178
  S    -0.064274  3.675708  4.495598
  S     0.241217  7.580141  4.418074
