16  
    
  C     1.032576  4.443004  2.916376
  C     1.683586  8.566432  2.934197
  C    -0.055159  3.835773  2.160747
  C     0.443497  8.107288  2.337278
  N     2.087379  4.721393  2.192896
  N     2.683411  8.739235  2.079088
  N     0.199363  3.765002  0.867796
  N     0.537478  7.809795  1.039130
  N    -0.765802  3.856625  4.622119
  N    -0.054611  8.414009  4.852991
  S    -1.447968  3.541589  3.134058
  S    -0.890466  8.057442  3.433386
  S     1.797714  4.293416  0.601810
  S     2.117437  8.281548  0.634851
  S     0.796142  4.341482  4.672098
  S     1.533024  8.919660  4.654688
