16  
    
  C     0.865943  3.977091  2.542077
  C     1.543385  7.944841  3.319655
  C    -0.288011  3.419830  1.847648
  C     0.287409  7.896482  2.684638
  N     1.977385  4.030465  1.803866
  N     2.539060  7.951143  2.455995
  N    -0.251877  3.402604  0.513183
  N     0.324314  7.818326  1.369119
  N    -0.896830  3.577878  4.346146
  N    -0.228661  7.826893  5.198345
  S    -1.633067  3.178576  2.952166
  S    -1.065892  7.827719  3.774156
  S     1.406356  3.709490  0.226337
  S     1.903967  7.908004  0.845329
  S     0.751978  4.057608  4.263301
  S     1.455415  8.034020  5.061384
