16  
    
  C    -1.162974  3.314114  2.167878
  C    -1.102110  7.070712  2.612184
  C    -2.458974  2.814039  1.594887
  C    -2.362607  6.804434  2.007933
  N    -0.374650  3.756382  1.210870
  N    -0.083055  7.135122  1.755078
  N    -2.438841  2.531806  0.297918
  N    -2.301952  6.827297  0.698379
  N    -2.693471  2.922268  4.189926
  N    -2.827493  6.654573  4.513863
  S    -3.628935  2.486956  2.878748
  S    -3.687365  6.595378  3.054680
  S    -0.935137  3.098461 -0.239492
  S    -0.704104  6.863154  0.251927
  S    -1.113533  3.371995  3.888693
  S    -1.176426  7.081943  4.348528
