16  
    
  C    -1.452647  2.658223  2.295435
  C    -1.421159  6.520332  2.249328
  C    -2.544156  1.959605  1.604261
  C    -2.663581  6.051254  1.657889
  N    -0.383113  2.869875  1.555357
  N    -0.527379  6.778036  1.333105
  N    -2.363837  1.784407  0.311413
  N    -2.543411  5.803550  0.353316
  N    -3.436169  2.454070  3.993604
  N    -3.064983  6.205916  4.241451
  S    -3.996024  1.748187  2.590610
  S    -3.949689  6.046192  2.841443
  S    -0.798019  2.326724  0.018758
  S    -0.984305  6.160035 -0.135947
  S    -1.882139  3.025045  3.922926
  S    -1.517230  6.754381  3.961740
