16  
    
  C    -4.142915  1.274442  1.743232
  C    -4.140180  5.269413  1.967242
  C    -5.417768  1.256869  1.006348
  C    -5.446795  5.206167  1.255220
  N    -3.068011  1.240999  0.931195
  N    -3.090362  5.202022  1.172018
  N    -5.238205  1.128788 -0.305604
  N    -5.297669  5.033068 -0.067452
  N    -5.952851  1.524396  3.474636
  N    -5.851885  4.957394  3.834190
  S    -6.750575  1.299424  2.026782
  S    -6.769182  4.908076  2.439992
  S    -3.587481  1.150311 -0.581138
  S    -3.659335  5.069214 -0.426229
  S    -4.328712  1.664911  3.445611
  S    -4.253605  5.274866  3.684252
