16  
    
  C    -0.261480  3.163301  2.649290
  C    -0.264049  6.966559  2.416580
  C    -1.562965  2.720107  2.092903
  C    -1.411279  6.190786  1.894269
  N     0.608229  3.487114  1.695373
  N     0.672088  7.237343  1.516484
  N    -1.466857  2.485193  0.801183
  N    -1.248485  5.911630  0.616380
  N    -1.957054  2.872786  4.560302
  N    -1.982543  6.798035  4.326685
  S    -2.814949  2.524010  3.199957
  S    -2.635452  5.920291  3.055427
  S     0.042567  2.898898  0.272264
  S     0.191786  6.581362  0.122151
  S    -0.402582  3.350808  4.415916
  S    -0.466297  7.439602  4.070382
