16  
    
  C    -4.835376  1.166539  1.576811
  C    -4.739477  4.923376  1.867840
  C    -5.998493  0.605274  0.930167
  C    -5.877040  4.258425  1.271650
  N    -3.827547  1.441570  0.793277
  N    -3.672491  5.034243  1.076343
  N    -5.790218  0.258445 -0.336063
  N    -5.658626  3.841012  0.021878
  N    -6.583240  0.823473  3.366660
  N    -6.464902  4.383810  3.769557
  S    -7.289115  0.179679  2.000421
  S    -7.212868  3.911018  2.352306
  S    -4.231623  0.877235 -0.745161
  S    -4.135909  4.356276 -0.405573
  S    -5.071514  1.364801  3.327178
  S    -4.944653  5.077692  3.615430
