16  
    
  C     2.038539  4.516629  3.296482
  C     1.539612  7.905080  3.081807
  C     0.780635  4.135781  2.607527
  C     0.381121  7.577807  2.342653
  N     3.018894  4.726218  2.459449
  N     2.618209  7.964764  2.326235
  N     0.890319  3.918439  1.281850
  N     0.574667  7.496833  1.019586
  N     0.379017  4.138678  5.161536
  N    -0.278669  7.608626  4.791253
  S    -0.382263  3.677163  3.820169
  S    -0.955934  7.176797  3.355334
  S     2.413983  4.437747  0.947399
  S     2.156117  7.736614  0.717374
  S     1.855658  4.854756  4.995289
  S     1.328679  7.947294  4.785773
