16  
    
  C     2.913964  5.300311  3.554294
  C     2.962372  8.726075  3.422694
  C     1.738659  4.820829  2.852157
  C     1.844310  8.152461  2.740262
  N     3.978824  5.479298  2.775845
  N     3.941368  9.181512  2.615002
  N     1.871774  4.777120  1.548390
  N     1.962235  8.052765  1.440914
  N     1.096294  5.003736  5.292749
  N     1.033311  8.389956  5.209217
  S     0.407358  4.530074  3.832046
  S     0.455377  7.949064  3.651331
  S     3.426525  5.287630  1.234944
  S     3.474019  8.725476  1.069600
  S     2.694732  5.340065  5.258700
  S     2.634090  8.894313  5.178295
