16  
    
  C    -6.075775  0.757382  1.353719
  C    -5.995179  4.422753  1.701232
  C    -7.314543  0.364845  0.720144
  C    -7.199188  3.990684  1.054985
  N    -5.149457  1.181599  0.520115
  N    -5.035969  4.778566  0.889538
  N    -7.188009  0.305586 -0.574131
  N    -7.102918  3.893980 -0.231579
  N    -7.727367  0.233012  3.223237
  N    -7.781221  3.752204  3.543045
  S    -8.531056  0.037915  1.780101
  S    -8.454395  3.319300  2.060595
  S    -5.681462  0.888460 -0.991448
  S    -5.603484  4.446915 -0.648681
  S    -6.100703  0.777561  3.072121
  S    -6.212466  4.322914  3.421044
