16  
    
  C    -5.433541  1.032071  1.280943
  C    -5.363147  4.766007  1.559884
  C    -6.596521  0.583604  0.589746
  C    -6.571429  4.307325  0.867520
  N    -4.469009  1.453997  0.471883
  N    -4.352341  5.161200  0.781599
  N    -6.422846  0.487105 -0.739145
  N    -6.420870  4.292415 -0.450367
  N    -7.181562  0.472405  3.107620
  N    -7.240759  4.482734  3.359648
  S    -7.892812  0.105591  1.631993
  S    -7.945218  4.099664  1.886650
  S    -4.899193  1.094458 -1.063287
  S    -4.890586  4.881229 -0.769143
  S    -5.604020  1.220735  3.039266
  S    -5.692198  5.072374  3.206542
