16  
    
  C     3.070248  5.139618  3.367381
  C     3.113715  9.021721  3.751237
  C     1.855631  4.703724  2.700136
  C     1.777596  8.673700  3.306288
  N     4.153180  4.998189  2.601657
  N     4.054610  8.901870  2.795232
  N     1.998379  4.614401  1.349074
  N     1.642369  8.319435  2.006614
  N     1.282672  5.004717  5.225780
  N     1.496791  9.370202  5.802142
  S     0.462718  4.597920  3.847463
  S     0.574599  8.765849  4.542714
  S     3.670311  4.849078  1.039997
  S     3.276056  8.246434  1.446552
  S     2.920451  5.242655  5.123581
  S     3.159526  9.357775  5.509116
