16  
    
  C     3.156751  5.197130  3.447317
  C     3.558781  9.191047  3.325577
  C     2.007324  4.596130  2.813461
  C     2.367522  8.604495  2.770989
  N     4.183096  5.555333  2.642127
  N     4.608170  9.320981  2.529446
  N     2.122024  4.569670  1.489298
  N     2.597047  8.381553  1.479608
  N     1.407717  5.151119  5.293883
  N     2.092759  8.824843  5.397082
  S     0.716442  4.410509  3.988821
  S     1.176810  8.344860  4.122128
  S     3.621092  5.135245  1.121902
  S     4.071854  8.910218  1.026912
  S     3.021443  5.387144  5.155933
  S     3.558373  9.462177  5.057198
