16  
    
  C    -4.347766  1.591600  1.947086
  C    -4.617616  5.149900  1.687459
  C    -5.474342  0.958437  1.395539
  C    -5.798602  4.608347  1.105614
  N    -3.271408  1.776103  1.142158
  N    -3.613857  5.363333  0.812005
  N    -5.345154  0.783416  0.080322
  N    -5.754349  4.305642 -0.202654
  N    -6.130848  1.295821  3.884079
  N    -6.331954  4.666809  3.704434
  S    -6.823472  0.783356  2.503001
  S    -7.097566  4.392936  2.221188
  S    -3.845202  1.240289 -0.334647
  S    -4.244141  4.823767 -0.669500
  S    -4.568659  1.862737  3.674510
  S    -4.833505  5.382039  3.453729
