16  
    
  C    -5.377827  1.046437  1.713276
  C    -5.116961  4.692751  1.399390
  C    -6.643130  0.783256  1.059493
  C    -6.379638  4.268777  0.797961
  N    -4.296878  1.049278  0.934300
  N    -4.081406  4.752549  0.551328
  N    -6.525514  0.582355 -0.264536
  N    -6.265052  4.088775 -0.514823
  N    -7.121024  0.999874  3.510157
  N    -7.001772  5.121012  3.111773
  S    -7.994321  0.644906  2.149958
  S    -7.785054  4.497547  1.747699
  S    -4.930920  0.802807 -0.597314
  S    -4.710264  4.417170 -0.946792
  S    -5.530772  1.329800  3.455886
  S    -5.354684  5.200220  3.052442
