16  
    
  C     2.986810  5.181517  3.385597
  C     3.464520  9.114919  3.346614
  C     1.834335  4.684843  2.672543
  C     2.191847  8.699368  2.850231
  N     4.009924  5.556785  2.603947
  N     4.482321  9.102930  2.455667
  N     2.097358  4.412522  1.354637
  N     2.267397  8.313986  1.552904
  N     1.340525  4.715810  5.293871
  N     1.923192  9.015494  5.471837
  S     0.518622  4.304985  3.876311
  S     0.950729  8.586777  4.150375
  S     3.665192  4.890488  1.078338
  S     3.763135  8.685047  1.026805
  S     2.776595  5.556726  5.080103
  S     3.542082  9.273686  5.030613
