16  
    
  C     0.180438  3.366418  2.424854
  C     0.042665  7.220897  2.804727
  C    -1.021886  2.866213  1.689996
  C    -1.139367  6.878198  2.116877
  N     1.158979  3.629602  1.610730
  N     1.108167  7.404767  2.026345
  N    -0.995806  2.993786  0.373674
  N    -1.008572  6.697148  0.785292
  N    -1.625141  2.853728  4.261333
  N    -1.782265  6.978049  4.649207
  S    -2.329386  2.546014  2.756413
  S    -2.463464  6.465264  3.236478
  S     0.592727  3.359869  0.019549
  S     0.613668  7.053307  0.404824
  S    -0.033074  3.479676  4.175914
  S    -0.209788  7.429146  4.516286
