16  
    
  C     0.222893  3.760167  2.895020
  C     0.350416  7.462466  2.775373
  C    -0.909043  3.140076  2.143056
  C    -0.963558  7.489797  2.194767
  N     1.264820  3.906038  2.084383
  N     1.279114  7.585254  1.827110
  N    -0.733551  2.992108  0.829825
  N    -1.008601  7.549330  0.881876
  N    -1.544004  3.036873  4.610944
  N    -1.373095  7.470175  4.754263
  S    -2.237737  2.772250  3.123083
  S    -2.234403  7.371071  3.340913
  S     0.796541  3.639244  0.506727
  S     0.642515  7.575155  0.300411
  S     0.049886  3.519208  4.618299
  S     0.303318  7.606214  4.520582
