16  
    
  C     2.894554  5.300555  3.590090
  C     2.916433  8.859173  3.454754
  C     1.731139  4.827773  2.854665
  C     1.784857  8.315802  2.776241
  N     4.002098  5.442460  2.859263
  N     4.032087  9.062666  2.718910
  N     1.930875  4.916663  1.532454
  N     2.047431  8.063596  1.493063
  N     1.118868  4.696514  5.401138
  N     1.007884  8.602267  5.161001
  S     0.297689  4.774578  3.965213
  S     0.387422  8.059717  3.700199
  S     3.541857  5.196819  1.246360
  S     3.610631  8.556341  1.145227
  S     2.675505  5.337684  5.337937
  S     2.659994  8.792372  5.186036
