16  
    
  C    -4.264041  1.486400  2.030363
  C    -4.606538  5.212068  1.705274
  C    -5.455095  0.958898  1.341946
  C    -5.906677  4.716125  1.090782
  N    -3.262410  1.756945  1.213384
  N    -3.629972  5.417773  0.843691
  N    -5.225586  0.624932  0.079670
  N    -5.756895  4.416314 -0.198235
  N    -6.147723  1.506950  3.701987
  N    -6.248689  5.022620  3.637983
  S    -6.874650  0.904788  2.330671
  S    -7.183755  4.561657  2.267121
  S    -3.707095  1.233800 -0.261208
  S    -4.201418  4.826777 -0.586853
  S    -4.550154  1.977090  3.727784
  S    -4.632843  5.461869  3.395078
