16  
    
  C    -5.308063  0.981590  1.376249
  C    -5.478866  4.703228  1.606479
  C    -6.484328  0.485061  0.748855
  C    -6.767039  4.322059  1.037136
  N    -4.362803  1.335971  0.519269
  N    -4.484663  4.815755  0.736921
  N    -6.397122  0.380779 -0.571352
  N    -6.727451  4.194986 -0.284547
  N    -7.105600  0.904834  3.182131
  N    -7.000049  4.255624  3.554286
  S    -7.800611  0.320444  1.835180
  S    -8.022921  4.268606  2.200137
  S    -4.897255  0.965609 -0.983683
  S    -5.149386  4.500277 -0.735863
  S    -5.519977  1.328195  3.086417
  S    -5.479197  4.889691  3.295083
