16  
    
  C     3.119370  4.849768  3.413358
  C     2.934483  9.024566  3.752292
  C     1.881013  4.706175  2.694137
  C     1.636197  8.639146  3.312252
  N     4.160179  5.155884  2.646319
  N     3.996991  8.953406  2.950791
  N     2.056274  4.604893  1.369481
  N     1.807277  8.178945  2.034644
  N     1.213628  5.011879  5.149297
  N     1.507737  9.161263  5.831339
  S     0.495618  4.669609  3.685115
  S     0.464585  8.764456  4.588966
  S     3.628910  4.870864  1.083990
  S     3.334894  8.491578  1.526338
  S     2.856708  5.274483  5.047613
  S     3.113405  9.300825  5.415851
