16  
    
  C     0.740690  3.696851  3.137629
  C     1.112434  7.568279  2.905501
  C    -0.481675  3.433637  2.447142
  C     0.053952  6.999122  2.247577
  N     1.722501  4.053892  2.343875
  N     2.198688  7.626200  2.174192
  N    -0.393144  3.335940  1.132211
  N     0.233708  6.743672  0.973618
  N    -0.964652  3.271315  5.033472
  N    -0.785862  7.579555  4.596673
  S    -1.756257  3.121154  3.628134
  S    -1.385066  6.890384  3.187308
  S     1.197845  3.665648  0.805504
  S     1.801715  7.171058  0.641579
  S     0.674063  3.676992  4.930113
  S     0.861419  7.958892  4.537115
