16  
    
  C     0.744705  3.820404  3.155440
  C     1.128870  7.559068  2.935309
  C    -0.486985  3.346476  2.479539
  C    -0.033174  6.982658  2.233322
  N     1.796282  3.938901  2.329012
  N     2.222979  7.676158  2.210836
  N    -0.439497  3.305964  1.126283
  N     0.238516  6.711678  0.967155
  N    -0.871705  3.312634  5.067332
  N    -0.784289  7.633464  4.605361
  S    -1.730930  3.179128  3.613266
  S    -1.394595  6.930028  3.240566
  S     1.179002  3.647547  0.744158
  S     1.798819  7.155901  0.669615
  S     0.711307  3.720277  4.930306
  S     0.876485  7.961578  4.564489
