16  
    
  C    -4.186519  1.538854  1.860750
  C    -3.879694  5.143733  1.959086
  C    -5.444936  1.110105  1.334515
  C    -5.120033  4.541429  1.374002
  N    -3.176279  1.690091  0.970493
  N    -2.881764  5.238928  1.101340
  N    -5.298057  0.676610  0.057899
  N    -4.880484  4.073966  0.134441
  N    -5.839665  1.669059  3.842002
  N    -5.677417  5.373768  3.760590
  S    -6.643712  0.953958  2.581484
  S    -6.514854  4.685835  2.491279
  S    -3.802413  1.038758 -0.497208
  S    -3.374529  4.624466 -0.390560
  S    -4.229394  1.885997  3.668318
  S    -4.093161  5.737633  3.593251
