16  
    
  C     2.041025  4.925405  3.196218
  C     2.019239  8.560015  3.275522
  C     0.886276  4.493767  2.445081
  C     0.771156  8.256095  2.611326
  N     3.078876  5.204170  2.432399
  N     3.095899  8.677977  2.513903
  N     1.094266  4.549944  1.148514
  N     0.980568  8.272128  1.272912
  N     0.134269  4.506567  4.833905
  N     0.338038  8.282627  5.150137
  S    -0.547677  4.187128  3.327079
  S    -0.489605  7.860874  3.778640
  S     2.647177  4.932495  0.854697
  S     2.568029  8.687815  0.988190
  S     1.666303  5.216558  4.924917
  S     1.902710  8.782090  4.981771
