16  
    
  C    -2.131222  2.460068  1.946714
  C    -2.110078  5.735737  2.192076
  C    -3.340253  1.978156  1.409220
  C    -3.407694  5.553008  1.533806
  N    -1.121050  2.567520  1.090559
  N    -1.068771  5.763144  1.416225
  N    -3.335438  1.769221  0.089600
  N    -3.313047  5.407429  0.210428
  N    -3.832771  2.352267  3.879492
  N    -3.915659  5.877898  4.046177
  S    -4.685924  1.942463  2.536668
  S    -4.690364  5.422103  2.661099
  S    -1.770057  2.056908 -0.382284
  S    -1.757924  5.774076 -0.115019
  S    -2.213079  2.566398  3.677531
  S    -2.266933  6.143389  3.897155
