16  
    
  C    -4.181381  1.358339  1.838681
  C    -4.142889  5.105008  1.962822
  C    -5.420831  1.293174  1.059919
  C    -5.408464  4.903983  1.370245
  N    -3.111167  1.366037  1.029659
  N    -3.142890  5.128624  1.095292
  N    -5.274722  1.097497 -0.269040
  N    -5.385291  4.597889  0.067716
  N    -6.074031  1.564296  3.572746
  N    -5.880410  5.324828  3.852616
  S    -6.820857  1.250231  2.141310
  S    -6.693050  5.005790  2.483373
  S    -3.564014  1.150579 -0.539675
  S    -3.797489  4.805498 -0.397752
  S    -4.475292  1.509901  3.526526
  S    -4.253100  5.362892  3.743104
