16  
    
  C     2.021518  4.914795  3.141911
  C     2.080811  8.561834  3.363172
  C     0.816399  4.638397  2.407568
  C     0.826497  8.271819  2.705612
  N     3.087190  5.235009  2.405944
  N     3.104802  8.833447  2.505772
  N     1.087583  4.402384  1.118703
  N     0.877980  8.382987  1.370432
  N     0.189891  4.387428  5.000493
  N     0.207042  8.547446  5.199355
  S    -0.462386  4.198788  3.477951
  S    -0.499895  8.001761  3.746405
  S     2.654932  4.966276  0.837890
  S     2.455199  8.661476  1.016410
  S     1.808973  4.949785  4.843497
  S     1.820256  8.887838  5.068889
