16  
    
  C    -3.387197  1.487136  2.124178
  C    -3.236268  5.481877  2.025999
  C    -4.618001  1.243914  1.463357
  C    -4.477307  5.071261  1.397406
  N    -2.307344  1.568961  1.347054
  N    -2.163496  5.448866  1.244021
  N    -4.557838  0.957935  0.165442
  N    -4.335624  4.801429  0.088819
  N    -5.267366  1.491204  3.954254
  N    -4.942976  5.314552  3.991076
  S    -6.006010  1.187258  2.508129
  S    -5.792202  4.952699  2.566908
  S    -2.953519  1.112827 -0.184374
  S    -2.767074  5.089588 -0.294844
  S    -3.645799  1.793690  3.789806
  S    -3.318434  5.678794  3.820827
