16  
    
  C     2.203507  4.395091  3.023790
  C     2.023103  8.276622  3.120310
  C     1.029296  3.942566  2.265753
  C     0.838345  7.609615  2.597028
  N     3.388721  4.394772  2.385240
  N     3.084735  8.227085  2.333539
  N     1.321209  3.874867  0.961643
  N     0.982452  7.109625  1.391479
  N     0.238219  4.399095  4.663203
  N     0.111787  8.338752  4.910332
  S    -0.386026  3.893160  3.290669
  S    -0.534109  7.549989  3.564957
  S     2.970409  4.021226  0.840875
  S     2.550575  7.418367  0.925941
  S     1.848346  4.791024  4.734958
  S     1.628722  8.968269  4.735243
