16  
    
  C     0.566893  4.003172  2.971327
  C     0.695161  7.457602  2.801706
  C    -0.552890  3.204145  2.422753
  C    -0.527915  6.926666  2.101877
  N     1.621492  3.997410  2.157648
  N     1.744255  7.697673  2.004382
  N    -0.393044  2.818954  1.140157
  N    -0.345181  6.672383  0.798034
  N    -1.162437  4.009307  4.817299
  N    -1.043569  7.247937  4.638209
  S    -1.862419  3.277585  3.516038
  S    -1.868336  6.757909  3.259527
  S     1.107689  3.340834  0.680933
  S     1.172280  7.214908  0.516801
  S     0.439140  4.358766  4.660181
  S     0.515870  7.839196  4.465713
