16  
    
  C    -0.385093  3.297610  2.682050
  C    -0.339142  7.030459  2.471310
  C    -1.459566  2.580172  2.092223
  C    -1.445133  6.356185  1.966876
  N     0.710617  3.463716  1.959056
  N     0.658455  7.165910  1.611038
  N    -1.333409  2.473759  0.767424
  N    -1.352842  5.965722  0.711509
  N    -2.222042  3.031077  4.559677
  N    -2.074438  6.967732  4.340380
  S    -2.842502  2.338138  3.116248
  S    -2.719195  6.059926  3.090184
  S     0.242039  2.896749  0.437822
  S     0.134289  6.384344  0.238858
  S    -0.686041  3.669349  4.375999
  S    -0.513170  7.525835  4.171005
