16  
    
  C     0.939949  4.199716  2.732891
  C     1.587415  8.717038  3.015974
  C    -0.106870  3.511470  1.950742
  C     0.378400  8.204061  2.384184
  N     2.017565  4.438419  1.952653
  N     2.632742  8.896054  2.191869
  N     0.094886  3.648102  0.618356
  N     0.474812  7.981782  1.069493
  N    -0.956238  3.856607  4.406218
  N    -0.151879  8.381829  4.915618
  S    -1.480946  3.203455  2.959955
  S    -0.943460  8.012148  3.476388
  S     1.656641  4.108096  0.410953
  S     1.992753  8.425149  0.690956
  S     0.654099  4.397946  4.443786
  S     1.481819  8.843253  4.776122
