16  
    
  C     0.553725  3.890370  2.966222
  C     0.717148  7.478320  2.817561
  C    -0.641332  3.373853  2.414944
  C    -0.439484  7.121155  2.095417
  N     1.549639  4.005482  2.103454
  N     1.841114  7.634716  2.084216
  N    -0.589912  2.943778  1.191503
  N    -0.295878  6.898947  0.771135
  N    -1.129463  3.918882  4.873954
  N    -1.279060  7.153013  4.620471
  S    -1.979293  3.309724  3.563363
  S    -1.885843  6.858695  3.078765
  S     0.966426  3.321871  0.658914
  S     1.327561  7.207107  0.521803
  S     0.470023  4.216010  4.653644
  S     0.271138  7.774094  4.555176
