16  
    
  C    -1.080754  3.036905  2.451411
  C    -0.594358  6.507241  2.337350
  C    -2.305637  2.787382  1.758713
  C    -1.845627  6.155815  1.704675
  N    -0.016201  3.109579  1.678461
  N     0.432749  6.691217  1.483432
  N    -2.204615  2.563480  0.448396
  N    -1.808708  6.271541  0.366458
  N    -2.873654  3.205566  4.246555
  N    -2.351040  6.603550  4.204803
  S    -3.685989  2.973446  2.854412
  S    -3.216806  6.235157  2.787066
  S    -0.531032  2.674850  0.146145
  S    -0.283378  6.537055 -0.020098
  S    -1.242559  3.359114  4.163705
  S    -0.693100  6.876357  4.004366
