16  
    
  C    -5.499773  1.124018  1.322238
  C    -5.258023  5.170156  1.390201
  C    -6.638759  0.601192  0.626199
  C    -6.359060  4.444568  0.716991
  N    -4.472139  1.412302  0.521098
  N    -4.285768  5.536105  0.583277
  N    -6.494622  0.451991 -0.670446
  N    -6.139474  4.193501 -0.570431
  N    -7.348702  0.664458  3.097051
  N    -6.903598  4.471355  3.259611
  S    -7.942928  0.011711  1.683254
  S    -7.486298  3.767510  1.854022
  S    -4.966757  0.993087 -0.993495
  S    -4.648702  4.880450 -0.917446
  S    -5.708039  1.108820  3.022778
  S    -5.425681  5.251322  3.148811
