16  
    
  C     2.839089  5.178258  3.786352
  C     2.246212  8.589871  3.391910
  C     1.674705  4.475169  3.321610
  C     1.176673  7.924467  2.695028
  N     3.817642  5.289712  2.871914
  N     3.391348  8.795381  2.765603
  N     1.686028  4.254779  2.011103
  N     1.503540  7.734093  1.442268
  N     1.158052  4.926312  5.829312
  N     0.322664  8.415479  5.058294
  S     0.344860  4.547395  4.417409
  S    -0.128917  7.532368  3.773768
  S     3.212160  4.630087  1.437456
  S     3.050014  8.397817  1.185264
  S     2.643469  5.686581  5.431933
  S     1.908062  8.966810  5.001274
