16  
    
  C     2.983933  5.171510  3.271725
  C     3.035795  9.154884  3.841218
  C     1.815783  4.659064  2.591523
  C     1.799391  8.670595  3.269657
  N     4.089781  5.209174  2.534576
  N     4.077714  9.165909  3.019290
  N     1.959234  4.604289  1.243543
  N     1.860880  8.363292  1.997621
  N     1.153298  5.006709  5.060685
  N     1.180510  8.893554  5.763038
  S     0.422034  4.579404  3.646578
  S     0.440514  8.492549  4.319222
  S     3.652943  4.749539  1.030340
  S     3.380269  8.807788  1.522236
  S     2.770062  5.281380  4.950003
  S     2.819724  9.377597  5.573142
