16  
    
  C     0.004446  3.245425  2.622331
  C    -0.039929  7.045696  2.551111
  C    -1.155745  2.651980  1.897830
  C    -1.207972  6.584021  1.905129
  N     0.927131  3.757087  1.774960
  N     0.980342  7.481512  1.797279
  N    -0.909795  2.334988  0.634262
  N    -1.179513  6.667833  0.582606
  N    -1.894850  2.879729  4.320865
  N    -1.819149  6.489636  4.470093
  S    -2.515568  2.303043  2.907493
  S    -2.555320  6.316609  3.007086
  S     0.489913  3.159937  0.241078
  S     0.377408  7.201014  0.180735
  S    -0.355435  3.521234  4.334961
  S    -0.230040  6.949382  4.357313
