16  
    
  C     3.161572  5.222060  3.387381
  C     3.351799  9.225238  3.761973
  C     2.038240  4.694118  2.726693
  C     2.186193  8.824086  2.999833
  N     4.255956  5.253155  2.609655
  N     4.456477  9.378803  2.982127
  N     2.130183  4.472913  1.436832
  N     2.314276  8.681559  1.691429
  N     1.366883  4.793619  5.276667
  N     1.347985  8.750404  5.407391
  S     0.659291  4.414207  3.811819
  S     0.759826  8.660422  3.851037
  S     3.770906  4.812334  1.070109
  S     3.953552  8.921689  1.396606
  S     2.895180  5.294765  5.120648
  S     2.940506  9.278216  5.496470
