16  
    
  C     3.206242  5.007803  3.438141
  C     3.364335  9.146678  3.716519
  C     2.001339  4.535620  2.807431
  C     2.166663  8.841427  2.943690
  N     4.293658  5.094962  2.677692
  N     4.524439  9.184035  3.061000
  N     2.092422  4.572734  1.479183
  N     2.508442  8.658025  1.692793
  N     1.342723  5.161072  5.223910
  N     1.441325  9.045611  5.456874
  S     0.613505  4.670799  3.824952
  S     0.712575  8.802348  4.031811
  S     3.709203  4.788040  1.090360
  S     4.102004  8.986105  1.493435
  S     3.004799  5.224031  5.194342
  S     3.101108  9.233001  5.449321
