16  
    
  C     0.741801  3.709370  3.136535
  C     1.108891  7.567552  2.906696
  C    -0.482560  3.424518  2.446883
  C     0.050916  6.997034  2.246234
  N     1.729130  4.042951  2.346322
  N     2.195769  7.629246  2.182034
  N    -0.399857  3.333244  1.129931
  N     0.234736  6.741530  0.978157
  N    -0.955730  3.275168  5.036772
  N    -0.787042  7.585799  4.597205
  S    -1.752070  3.128127  3.627591
  S    -1.384623  6.895239  3.192270
  S     1.195346  3.662990  0.798185
  S     1.801839  7.169669  0.643975
  S     0.679097  3.681035  4.932725
  S     0.864250  7.959057  4.538309
