16  
    
  C    -2.614002  2.690604  2.004579
  C    -2.451996  6.143640  2.134923
  C    -3.793692  2.083500  1.518174
  C    -3.595918  5.653675  1.403032
  N    -1.574308  2.730539  1.171016
  N    -1.331539  6.286085  1.403486
  N    -3.746306  1.885585  0.197215
  N    -3.347120  5.354600  0.093713
  N    -4.320126  2.490613  4.002933
  N    -4.413598  6.067799  3.813027
  S    -5.091582  1.899136  2.626725
  S    -4.916945  5.364865  2.385197
  S    -2.173425  2.132325 -0.250273
  S    -1.869787  6.013861 -0.189821
  S    -2.679404  2.875638  3.786739
  S    -2.873291  6.649728  3.752071
