16  
    
  C     0.483143  3.512650  2.843653
  C     0.789832  7.706040  2.607250
  C    -0.646704  3.160695  2.034933
  C    -0.357867  7.201875  1.949779
  N     1.496337  3.972846  2.108212
  N     1.792274  8.028091  1.812767
  N    -0.458878  2.981100  0.747585
  N    -0.410345  7.224641  0.598691
  N    -1.365992  3.222663  4.524247
  N    -0.785973  6.752190  4.574550
  S    -1.948990  2.747884  3.073071
  S    -1.558708  6.525240  3.106604
  S     1.165547  3.601055  0.528878
  S     1.151724  7.828992  0.252108
  S     0.249062  3.720854  4.535743
  S     0.692998  7.545833  4.415162
