16  
    
  C    -0.354968  3.398504  2.491908
  C    -0.314788  6.886225  2.255421
  C    -1.647712  2.957360  1.974134
  C    -1.550707  6.587935  1.721798
  N     0.606624  3.479323  1.587484
  N     0.647767  7.193570  1.394418
  N    -1.610161  2.669441  0.700873
  N    -1.555435  6.502627  0.411253
  N    -1.991713  3.157963  4.453025
  N    -1.859806  6.691220  4.267912
  S    -2.910373  2.974148  3.131918
  S    -2.795576  6.457494  2.914520
  S    -0.094237  3.108611  0.126947
  S     0.029670  6.839996 -0.048930
  S    -0.376392  3.382903  4.287525
  S    -0.271212  7.144418  3.970417
