16  
    
  C    -3.541496  1.564357  2.112369
  C    -3.264404  5.311205  2.055583
  C    -4.733219  1.171242  1.347835
  C    -4.522039  4.994273  1.511055
  N    -2.400210  1.660481  1.403441
  N    -2.237022  5.427088  1.196823
  N    -4.455089  0.763354  0.094367
  N    -4.519700  4.817470  0.190412
  N    -5.424761  1.403826  3.889413
  N    -4.977505  5.395680  4.019599
  S    -6.140554  1.069894  2.374892
  S    -5.833685  4.949038  2.615970
  S    -2.847110  1.158853 -0.164296
  S    -2.922661  5.005064 -0.239284
  S    -3.784789  1.916433  3.823512
  S    -3.394163  5.682221  3.715233
