16  
    
  C    -0.041448  3.356475  2.529830
  C    -0.037442  7.118268  2.660013
  C    -1.101941  2.615410  1.831987
  C    -1.219540  6.736057  2.030226
  N     1.012431  3.622571  1.764054
  N     0.951159  7.424931  1.833441
  N    -0.976099  2.711651  0.514696
  N    -1.083840  6.554338  0.725158
  N    -1.861964  2.959886  4.314331
  N    -1.764407  6.552906  4.460475
  S    -2.412907  2.299690  2.877119
  S    -2.564240  6.429108  3.016756
  S     0.593487  3.223237  0.220468
  S     0.387062  7.206922  0.315114
  S    -0.244848  3.520051  4.222508
  S    -0.160988  7.083518  4.411048
