16  
    
  C    -5.327630  0.962416  1.747875
  C    -5.149224  4.726969  1.358673
  C    -6.539552  0.508327  1.140567
  C    -6.384002  4.324597  0.669623
  N    -4.258000  1.146020  0.970929
  N    -4.067177  4.867455  0.581850
  N    -6.462012  0.421004 -0.210026
  N    -6.198718  4.101096 -0.647939
  N    -7.185728  1.041799  3.662440
  N    -7.029242  4.914658  3.140178
  S    -7.870550  0.597042  2.208099
  S    -7.781468  4.433000  1.759314
  S    -4.822373  0.836102 -0.587365
  S    -4.592688  4.466919 -0.952775
  S    -5.510615  1.337979  3.452879
  S    -5.390666  5.268181  2.990639
