16  
    
  C     2.905166  5.352825  3.523414
  C     2.882902  8.702345  3.442271
  C     1.796140  4.773499  2.829749
  C     1.820091  8.092375  2.678800
  N     3.960485  5.474075  2.738523
  N     3.851304  9.144860  2.658813
  N     1.881200  4.726339  1.506713
  N     1.964063  8.163830  1.326862
  N     1.035410  5.090236  5.222596
  N     1.084327  8.336904  5.185470
  S     0.433789  4.447242  3.821558
  S     0.444021  7.881641  3.749202
  S     3.355092  5.267404  1.174067
  S     3.464586  8.802797  1.074402
  S     2.733523  5.343151  5.258783
  S     2.659381  8.957804  5.093397
