16  
    
  C     0.654892  3.848728  2.903705
  C     0.592780  7.626861  2.726681
  C    -0.572550  3.588370  2.227493
  C    -0.486450  6.877765  2.284088
  N     1.715140  3.926105  2.065040
  N     1.489228  7.784856  1.787966
  N    -0.415451  3.195134  0.944196
  N    -0.494552  6.534223  1.023170
  N    -1.040954  3.649088  4.814957
  N    -0.945163  7.334322  4.751583
  S    -1.768580  3.200464  3.429128
  S    -1.743377  6.654739  3.452232
  S     1.131268  3.592387  0.585994
  S     0.909888  7.086317  0.399433
  S     0.556775  4.187356  4.640724
  S     0.562695  8.036999  4.402286
