16  
    
  C     1.560034  4.452346  3.397625
  C     1.372051  7.958492  3.102531
  C     0.263654  4.049517  2.936488
  C     0.161607  7.588050  2.453795
  N     2.603595  4.343887  2.518287
  N     2.419869  8.120004  2.308843
  N     0.197527  4.077328  1.595476
  N     0.324680  7.575078  1.151191
  N    -0.120567  4.695003  5.475649
  N    -0.413532  7.780531  4.899898
  S    -1.031703  4.199699  4.127495
  S    -1.180581  7.321139  3.470106
  S     1.748012  4.104140  1.055423
  S     1.867834  7.928742  0.735588
  S     1.556482  4.858417  5.122351
  S     1.198107  8.213031  4.776583
