16  
    
  C    -2.393804  2.389073  1.958947
  C    -2.427727  6.301617  2.099272
  C    -3.695507  2.032830  1.414829
  C    -3.561083  5.617567  1.444666
  N    -1.393577  2.538649  1.093665
  N    -1.344319  6.346334  1.369128
  N    -3.642963  1.865344  0.103033
  N    -3.277109  5.146936  0.247327
  N    -4.039009  2.413191  3.960912
  N    -4.180696  5.821437  3.971053
  S    -4.936517  2.018220  2.595307
  S    -4.871683  5.441515  2.512471
  S    -2.083934  2.169168 -0.402824
  S    -1.719023  5.673774 -0.047372
  S    -2.469377  2.921369  3.637632
  S    -2.582300  6.246650  3.835677
