16  
    
  C    -0.368093  3.332236  2.567038
  C    -0.307427  6.940123  2.361071
  C    -1.623502  3.047620  2.001056
  C    -1.581976  6.570135  1.805767
  N     0.597958  3.501579  1.685794
  N     0.583230  7.157106  1.372374
  N    -1.662840  3.026492  0.679538
  N    -1.633976  6.394615  0.481696
  N    -1.963975  3.195657  4.521580
  N    -1.944896  6.683417  4.356770
  S    -2.943194  2.950664  3.229343
  S    -2.808297  6.268835  2.971805
  S    -0.050765  3.178625  0.205939
  S    -0.096403  6.764289 -0.072083
  S    -0.402265  3.522852  4.269671
  S    -0.359243  7.125204  4.111597
