16  
    
  C    -4.708265  1.009912  1.428884
  C    -4.627127  4.626538  1.960983
  C    -5.929555  0.680305  0.730352
  C    -5.868434  4.260657  1.333181
  N    -3.670360  1.040400  0.628400
  N    -3.611577  4.752321  1.109763
  N    -5.764995  0.667809 -0.616489
  N    -5.763439  4.041699  0.035486
  N    -6.624683  0.908585  3.281044
  N    -6.573513  4.588891  3.754186
  S    -7.297374  0.444673  1.807541
  S    -7.259392  4.112827  2.336652
  S    -4.218615  0.946523 -0.926079
  S    -4.230840  4.500154 -0.430989
  S    -4.908439  1.156145  3.183801
  S    -4.918258  4.882155  3.691859
