16  
    
  C     3.130575  5.068188  3.417889
  C     3.218342  8.936683  3.793502
  C     1.858488  4.932951  2.779664
  C     1.889617  8.690978  3.305619
  N     4.175405  5.150801  2.598373
  N     4.081365  8.696925  2.766596
  N     1.951294  4.596640  1.484122
  N     1.734253  8.280520  2.030228
  N     1.303267  5.018419  5.251164
  N     1.587228  9.396524  5.747259
  S     0.560734  4.531279  3.854832
  S     0.639805  8.826943  4.489868
  S     3.533040  4.719251  1.068022
  S     3.206792  8.208527  1.425784
  S     2.967139  5.215305  5.125571
  S     3.218903  9.433238  5.487186
