16  
    
  C     3.129406  5.027004  3.464192
  C     3.409106  8.908766  3.718653
  C     1.848380  4.859844  2.800032
  C     2.126989  8.874275  3.096298
  N     4.214805  5.081128  2.674607
  N     4.509364  8.709696  2.948855
  N     2.021323  4.636530  1.499674
  N     2.208452  8.565879  1.798966
  N     1.405250  5.156596  5.351007
  N     1.693555  9.065189  5.590030
  S     0.572642  4.729565  3.961398
  S     0.798188  9.074980  4.220194
  S     3.673796  4.638650  1.224567
  S     3.923701  8.571923  1.397742
  S     3.041682  5.242496  5.176883
  S     3.347325  9.275967  5.388054
