16  
    
  C     2.940908  5.356368  3.924506
  C     2.559054  8.690250  3.174325
  C     1.705743  4.934143  3.318369
  C     1.323367  8.229591  2.568765
  N     3.978961  5.321918  3.110806
  N     3.531599  8.709685  2.231857
  N     1.804380  4.639522  2.026041
  N     1.346306  7.818367  1.291205
  N     1.183581  5.838533  5.710295
  N     0.860492  8.369320  5.072710
  S     0.397144  5.011222  4.480738
  S     0.019644  8.172657  3.720964
  S     3.420857  4.863691  1.682661
  S     2.900216  8.107878  0.837893
  S     2.825551  5.917536  5.555544
  S     2.424451  8.814253  4.908849
