16  
    
  C    -0.696823  3.085408  2.479870
  C    -0.983368  6.368132  2.529791
  C    -1.921794  2.526688  1.877591
  C    -2.157240  5.952888  1.846682
  N     0.263162  3.188032  1.545923
  N     0.093789  6.476678  1.780690
  N    -1.898639  2.479786  0.532391
  N    -2.013782  5.770606  0.538269
  N    -2.407597  2.725224  4.322502
  N    -2.855469  6.328559  4.194039
  S    -3.286829  2.505014  2.989075
  S    -3.476614  5.656292  2.771404
  S    -0.350698  2.763191  0.078993
  S    -0.414209  6.252695  0.227381
  S    -0.866165  3.231911  4.196329
  S    -1.239496  6.631620  4.194625
