16  
    
  C    -3.398838  1.634730  2.065852
  C    -3.103312  5.430857  2.079290
  C    -4.652635  1.229605  1.472949
  C    -4.347398  5.006677  1.445249
  N    -2.400954  1.540015  1.201329
  N    -2.071898  5.590698  1.256875
  N    -4.600610  1.078584  0.146576
  N    -4.242291  4.836146  0.165942
  N    -5.096479  1.642482  3.972018
  N    -4.925701  5.153392  3.877306
  S    -5.969343  1.157866  2.657887
  S    -5.688996  4.933161  2.479495
  S    -2.976726  1.295733 -0.318875
  S    -2.716422  5.112257 -0.249200
  S    -3.460789  1.735521  3.876967
  S    -3.364819  5.702187  3.752735
