16  
    
  C     0.564965  3.646922  2.972183
  C     0.963999  7.580696  2.624388
  C    -0.519936  3.102866  2.167424
  C    -0.259647  6.992589  1.958155
  N     1.504067  4.273994  2.234379
  N     1.926753  8.019863  1.836287
  N    -0.199889  2.959112  0.908936
  N    -0.187466  7.104413  0.623084
  N    -1.468746  3.174329  4.530913
  N    -0.705540  6.888073  4.500583
  S    -1.917960  2.542617  3.044403
  S    -1.489910  6.473611  3.054244
  S     1.304625  3.679225  0.673991
  S     1.311967  7.812168  0.337427
  S     0.037982  3.760940  4.628011
  S     0.888075  7.511943  4.364317
