16  
    
  C    -2.720124  2.652669  2.358794
  C    -2.779252  6.069988  1.929849
  C    -3.911290  2.030439  1.728730
  C    -3.872211  5.540127  1.194880
  N    -1.766620  3.021953  1.502638
  N    -1.658563  6.378935  1.275204
  N    -3.694116  1.780756  0.428160
  N    -3.634418  5.544745 -0.178941
  N    -4.382305  2.121608  4.224340
  N    -4.445801  5.440103  3.728684
  S    -5.050401  1.361371  2.919735
  S    -5.188859  5.228428  2.270960
  S    -2.244435  2.434472 -0.022750
  S    -2.112132  6.170044 -0.330060
  S    -2.883330  2.783586  4.045410
  S    -3.003435  6.230145  3.685378
