16  
    
  C    -3.693647  1.891158  1.850225
  C    -3.981771  5.366107  1.782034
  C    -4.829381  1.349555  1.215094
  C    -5.114340  4.834513  1.043626
  N    -2.731036  2.133529  0.981215
  N    -2.932745  5.589424  1.023511
  N    -4.882999  1.377315 -0.100230
  N    -4.924562  4.773727 -0.271935
  N    -5.333288  1.420421  3.697917
  N    -5.832412  5.030496  3.513662
  S    -6.193470  1.149436  2.291297
  S    -6.383102  4.392993  2.049877
  S    -3.325640  1.884159 -0.505597
  S    -3.397688  5.371919 -0.527447
  S    -3.732085  1.932088  3.549173
  S    -4.222548  5.438147  3.494071
