16  
    
  C     1.960484  4.546993  3.266809
  C     1.610007  7.657911  3.058813
  C     0.764210  4.059451  2.623560
  C     0.405645  7.377910  2.358090
  N     2.956107  4.909937  2.475846
  N     2.685195  7.940476  2.303406
  N     0.939330  3.904946  1.317925
  N     0.541257  7.430673  1.027810
  N     0.327636  4.007182  5.207339
  N    -0.202708  7.542921  4.825346
  S    -0.443746  3.705977  3.825510
  S    -0.968847  7.388682  3.369314
  S     2.370090  4.590647  0.978390
  S     2.136585  7.737696  0.731016
  S     1.903132  4.504523  5.070920
  S     1.433994  7.703014  4.797066
