16  
    
  C     2.179745  4.770038  3.155276
  C     1.972362  8.945576  3.368396
  C     0.943095  4.441134  2.519438
  C     0.806943  8.416547  2.750400
  N     3.157320  5.086435  2.323932
  N     3.004926  9.230120  2.641528
  N     0.999550  4.399606  1.197177
  N     1.030527  8.211756  1.468651
  N     0.479529  4.309753  5.127113
  N     0.322422  8.506080  5.263295
  S    -0.284878  4.050882  3.603384
  S    -0.523931  8.312013  3.871738
  S     2.481204  4.945361  0.791773
  S     2.659799  8.577992  1.148174
  S     2.081798  4.683523  4.909304
  S     1.911724  8.972437  5.067440
