16  
    
  C     1.230923  4.287216  3.095429
  C     1.634871  8.240197  2.992944
  C    -0.039140  4.092039  2.470101
  C     0.362882  8.076575  2.325625
  N     2.209064  4.623190  2.228326
  N     2.727133  8.097745  2.245042
  N     0.017111  4.012167  1.118466
  N     0.515709  7.907815  1.017551
  N    -0.573241  4.176721  4.976982
  N    -0.070157  8.299322  4.865651
  S    -1.297017  3.707970  3.597083
  S    -0.946608  8.106442  3.486477
  S     1.537033  4.425006  0.742305
  S     2.110706  7.858399  0.677127
  S     1.086258  4.544626  4.901002
  S     1.558142  8.469242  4.716527
