16  
    
  C     3.466221  5.273168  3.541610
  C     3.561198  9.191036  3.488290
  C     2.200873  5.021869  2.937951
  C     2.439870  8.564721  2.874317
  N     4.445564  5.595671  2.645119
  N     4.611382  9.450965  2.636364
  N     2.238395  4.840312  1.631036
  N     2.528082  8.359753  1.558610
  N     1.695676  4.889137  5.504930
  N     1.822831  8.693536  5.403533
  S     0.951294  4.600911  4.023042
  S     1.193362  8.115661  3.962223
  S     3.811663  5.180104  1.165131
  S     4.025786  9.066353  1.102466
  S     3.254008  5.360041  5.325196
  S     3.373893  9.406383  5.209925
