16  
    
  C    -4.145091  1.437207  1.901010
  C    -3.949314  5.217644  1.947069
  C    -5.459033  1.110586  1.271221
  C    -5.226473  4.864287  1.376471
  N    -3.119368  1.386688  1.058053
  N    -2.921403  4.977064  1.107803
  N    -5.377394  1.015946 -0.046589
  N    -5.137815  4.370829  0.150505
  N    -5.922388  1.375076  3.827782
  N    -5.761070  5.339417  3.929464
  S    -6.738068  1.069644  2.430328
  S    -6.560363  4.778561  2.570727
  S    -3.696189  1.176853 -0.471110
  S    -3.542194  4.418494 -0.347584
  S    -4.309960  1.697428  3.697699
  S    -4.113728  5.717566  3.669366
