16  
    
  C    -4.139752  1.615965  1.900539
  C    -3.963258  5.127624  1.957998
  C    -5.383518  1.086090  1.354480
  C    -5.103723  4.596474  1.388909
  N    -3.166571  1.576741  1.025490
  N    -2.924075  5.199883  1.139235
  N    -5.432251  0.806047  0.059168
  N    -4.955541  4.177151  0.146692
  N    -5.823428  1.531505  3.828931
  N    -5.676176  5.372776  3.784343
  S    -6.664273  0.963019  2.546720
  S    -6.480144  4.686870  2.464737
  S    -3.787721  1.062021 -0.426822
  S    -3.394339  4.579652 -0.259847
  S    -4.208538  1.833327  3.598466
  S    -4.013400  5.759064  3.558247
