16  
    
  C    -4.584100  0.962123  1.631890
  C    -4.850414  4.592453  1.581375
  C    -5.826946  0.856600  0.893861
  C    -6.066128  4.374486  0.904031
  N    -3.539919  1.176520  0.824611
  N    -3.771103  4.837672  0.843998
  N    -5.673753  0.812578 -0.429787
  N    -5.926375  4.360367 -0.405775
  N    -6.290414  0.715793  3.458863
  N    -6.608600  4.269254  3.432225
  S    -7.129258  0.561349  2.046581
  S    -7.388496  4.016899  1.938079
  S    -4.115110  1.107024 -0.723753
  S    -4.335403  4.842844 -0.721616
  S    -4.707176  0.963136  3.362034
  S    -4.983243  4.489257  3.285501
