16  
    
  C    -2.562701  2.021814  2.029638
  C    -2.523681  5.814575  2.105742
  C    -3.863588  1.882297  1.360206
  C    -3.709272  5.335812  1.409843
  N    -1.523186  2.176927  1.209268
  N    -1.484306  5.831521  1.326614
  N    -3.762006  1.697610  0.062206
  N    -3.567313  5.112093  0.116256
  N    -4.426915  2.037365  3.811619
  N    -4.478763  5.874956  3.779726
  S    -5.224532  1.948192  2.392170
  S    -5.089383  5.293096  2.382471
  S    -2.212514  2.065350 -0.327292
  S    -1.889479  5.351694 -0.163402
  S    -2.825746  2.432401  3.708907
  S    -2.845203  6.125218  3.851298
