16  
    
  C     0.962903  3.926223  2.642809
  C     1.401007  7.886836  3.185044
  C    -0.131549  3.476720  1.822315
  C     0.132059  7.658377  2.546783
  N     1.954002  4.383263  1.872891
  N     2.473993  7.927536  2.394807
  N     0.157697  3.194157  0.557390
  N     0.211298  7.513477  1.224307
  N    -0.985082  3.726689  4.228489
  N    -0.396646  7.955347  5.093619
  S    -1.558343  3.249961  2.785203
  S    -1.224708  7.708843  3.706024
  S     1.692242  3.804874  0.321292
  S     1.800673  7.743862  0.843384
  S     0.633903  4.298146  4.319008
  S     1.277608  8.092130  4.988515
