16  
    
  C     1.950991  4.556146  3.268979
  C     1.615683  7.657996  3.061682
  C     0.760568  4.044468  2.622791
  C     0.408486  7.375399  2.356480
  N     2.953393  4.898556  2.478950
  N     2.690904  7.939482  2.299550
  N     0.937503  3.906690  1.318411
  N     0.532161  7.426762  1.023101
  N     0.328648  4.007537  5.216448
  N    -0.203760  7.541623  4.828234
  S    -0.442901  3.708406  3.822234
  S    -0.966304  7.389639  3.367264
  S     2.371191  4.595618  0.980754
  S     2.133470  7.740622  0.732672
  S     1.903337  4.497458  5.071144
  S     1.437492  7.699617  4.800310
