16  
    
  C    -0.373851  3.212440  2.589520
  C    -0.243705  7.055954  2.334916
  C    -1.625036  2.861495  1.935789
  C    -1.408883  6.704016  1.690134
  N     0.666241  3.328898  1.772038
  N     0.832702  7.198137  1.555936
  N    -1.487096  2.498404  0.640041
  N    -1.320192  6.497710  0.357174
  N    -2.073089  3.236389  4.464432
  N    -2.101507  6.751268  4.250585
  S    -2.888608  2.599966  3.149205
  S    -2.837547  6.586479  2.782078
  S     0.083587  2.945584  0.243727
  S     0.241618  6.832591 -0.033222
  S    -0.489789  3.646288  4.279985
  S    -0.492321  7.190225  4.096278
