16  
    
  C    -1.538078  3.120552  1.964620
  C    -1.000547  7.109879  2.396797
  C    -2.601406  2.364125  1.344673
  C    -2.293271  6.732654  1.825378
  N    -0.552701  3.528689  1.185611
  N    -0.057367  7.040956  1.501474
  N    -2.391185  2.106185  0.057403
  N    -2.251471  6.414469  0.551815
  N    -3.243005  2.654777  3.824712
  N    -2.605150  6.610497  4.283771
  S    -3.887656  1.973109  2.431575
  S    -3.594190  6.688440  2.956586
  S    -0.947128  2.941214 -0.321763
  S    -0.751137  6.744385  0.015209
  S    -1.769085  3.429192  3.715391
  S    -1.021377  7.113065  4.137457
