16  
    
  C    -2.414641  1.960255  2.049773
  C    -2.529928  5.728625  2.077255
  C    -3.699558  1.833338  1.423997
  C    -3.784171  5.417767  1.411492
  N    -1.441986  1.884065  1.167526
  N    -1.402752  5.742928  1.285144
  N    -3.702010  1.652431  0.093547
  N    -3.588647  5.138750  0.125239
  N    -4.068702  2.237920  3.988019
  N    -4.366478  5.437184  3.903381
  S    -4.958103  2.121043  2.604132
  S    -5.165985  5.168557  2.471474
  S    -2.079329  1.661816 -0.329964
  S    -2.055812  5.422558 -0.298337
  S    -2.424010  2.385225  3.749491
  S    -2.763428  5.883482  3.800002
