16  
    
  C     0.655623  3.843166  2.907614
  C     0.596825  7.627444  2.730499
  C    -0.567504  3.596285  2.231424
  C    -0.485672  6.881157  2.283727
  N     1.711022  3.931920  2.065427
  N     1.484481  7.779278  1.782359
  N    -0.413823  3.196037  0.942876
  N    -0.492664  6.530108  1.029421
  N    -1.046477  3.651355  4.809654
  N    -0.950000  7.337970  4.755232
  S    -1.766281  3.199067  3.432977
  S    -1.742951  6.654513  3.449260
  S     1.136780  3.584511  0.592196
  S     0.914017  7.086948  0.394023
  S     0.553183  4.196800  4.640850
  S     0.565626  8.033174  4.407234
