16  
    
  C     1.211477  4.395303  3.151092
  C     1.666979  8.190202  3.006443
  C    -0.019864  3.978350  2.518293
  C     0.380665  8.003008  2.345466
  N     2.130902  4.595001  2.234828
  N     2.742242  8.011061  2.229969
  N    -0.039765  4.105509  1.201535
  N     0.434566  7.801006  1.005433
  N    -0.483518  4.191029  5.135289
  N    -0.113047  8.262866  4.882863
  S    -1.243632  3.761632  3.666355
  S    -0.975372  8.145614  3.461583
  S     1.537491  4.417847  0.737075
  S     2.084328  7.836795  0.746458
  S     1.118744  4.571696  4.882791
  S     1.541562  8.383358  4.736615
