16  
    
  C    -1.124022  3.073995  2.400591
  C    -0.583113  6.570220  2.314681
  C    -2.365969  2.838962  1.770374
  C    -1.876018  6.341119  1.746639
  N    -0.025751  3.050244  1.620909
  N     0.367694  6.760175  1.369894
  N    -2.197931  2.435635  0.511617
  N    -1.926776  6.295472  0.413767
  N    -2.954781  3.177071  4.279750
  N    -2.381867  6.602279  4.252240
  S    -3.741844  3.038280  2.778195
  S    -3.199222  6.320086  2.867096
  S    -0.616706  2.688797  0.124542
  S    -0.330559  6.586329 -0.167601
  S    -1.260849  3.318996  4.146262
  S    -0.746222  6.906930  4.040330
