16  
    
  C     3.135894  5.199058  3.411968
  C     3.204521  8.842797  3.706312
  C     1.903875  4.732696  2.837649
  C     1.819473  8.657109  3.331052
  N     4.141162  5.166041  2.544511
  N     4.166955  8.567465  2.854217
  N     1.876605  4.624389  1.513998
  N     1.712521  8.205401  2.077892
  N     1.371602  5.024672  5.255957
  N     1.693364  9.360664  5.712098
  S     0.604282  4.540687  3.880777
  S     0.646613  8.928272  4.526625
  S     3.486198  4.667098  1.127848
  S     3.306485  8.255217  1.446553
  S     2.997777  5.216137  5.165437
  S     3.298140  9.419350  5.353485
