16  
    
  C    -2.411455  2.251211  1.984332
  C    -2.515791  5.639139  2.080028
  C    -3.687509  1.932638  1.458829
  C    -3.745888  5.312662  1.338852
  N    -1.401616  1.986728  1.153598
  N    -1.432551  5.805024  1.384460
  N    -3.710620  1.613700  0.172098
  N    -3.529781  5.131805  0.034150
  N    -4.167708  2.214940  3.951369
  N    -4.400581  5.580775  3.884974
  S    -5.064099  2.098851  2.534238
  S    -5.072631  5.321603  2.386030
  S    -2.170420  1.580538 -0.304168
  S    -1.906667  5.382754 -0.196588
  S    -2.471997  2.325565  3.711650
  S    -2.768926  6.001342  3.814488
