16  
    
  C    -3.155698  1.906320  1.871479
  C    -3.137480  5.816717  2.093683
  C    -4.327992  1.451499  1.117693
  C    -4.353052  5.296858  1.524513
  N    -2.105594  2.118341  1.096327
  N    -2.142612  6.028607  1.194903
  N    -4.061207  1.196057 -0.150207
  N    -4.291603  5.171018  0.213663
  N    -5.106895  1.692871  3.434610
  N    -4.795944  5.390480  4.058099
  S    -5.726196  1.138182  1.988124
  S    -5.656305  5.019251  2.668233
  S    -2.472728  1.670272 -0.422499
  S    -2.844604  5.766579 -0.334948
  S    -3.502165  2.118018  3.571046
  S    -3.261156  5.779154  3.800205
