16  
    
  C     3.008992  5.337457  3.394123
  C     3.647616  8.998965  3.409827
  C     1.906480  4.613885  2.809933
  C     2.401649  8.556772  2.894110
  N     4.088290  5.427400  2.603052
  N     4.522752  9.146482  2.384975
  N     2.025273  4.446326  1.487959
  N     2.265683  8.350177  1.562125
  N     1.320856  4.889587  5.221138
  N     1.978483  8.971524  5.353864
  S     0.603862  4.312347  3.832365
  S     1.127336  8.578666  4.038805
  S     3.573938  4.985061  1.143270
  S     3.784858  8.730905  0.940815
  S     2.838183  5.510829  5.051185
  S     3.555249  9.397050  5.155698
