16  
    
  C    -0.981201  3.092593  2.484121
  C    -0.659637  6.530445  2.367865
  C    -2.210634  2.833678  1.803448
  C    -1.894453  6.282613  1.660796
  N     0.057915  3.042473  1.672646
  N     0.420746  6.613490  1.575385
  N    -2.120417  2.645733  0.493205
  N    -1.755223  6.014621  0.367100
  N    -2.829693  3.213657  4.331253
  N    -2.400405  6.517878  4.169474
  S    -3.625060  2.823283  2.880511
  S    -3.180568  6.143862  2.791349
  S    -0.515396  2.725141  0.158306
  S    -0.130444  6.475583  0.020098
  S    -1.149370  3.385643  4.147850
  S    -0.765752  6.772287  4.053405
