16  
    
  C    -0.421326  3.479246  2.932131
  C    -0.977311  6.713614  2.720801
  C    -1.592803  2.859260  2.309483
  C    -2.036271  6.287535  1.893145
  N     0.643636  3.623736  2.117083
  N     0.151173  7.095916  2.104367
  N    -1.415781  2.662686  1.017232
  N    -1.718065  6.151277  0.599926
  N    -2.245289  3.366331  4.686752
  N    -2.961012  6.376102  4.332528
  S    -2.976886  2.824011  3.341508
  S    -3.512014  6.037852  2.799824
  S     0.112333  3.093281  0.620944
  S    -0.081904  6.603536  0.523669
  S    -0.647726  3.746897  4.659131
  S    -1.400203  6.977796  4.396825
