16  
    
  C    -2.661038  2.229453  2.037705
  C    -2.578429  5.816494  2.073858
  C    -3.894843  1.868328  1.303846
  C    -3.802955  5.410912  1.422850
  N    -1.635738  2.227282  1.201240
  N    -1.445944  5.825774  1.395880
  N    -3.809638  1.904856 -0.018410
  N    -3.536285  5.032147  0.167392
  N    -4.522721  1.924174  3.828197
  N    -4.454993  5.753141  3.869579
  S    -5.276971  1.822800  2.321571
  S    -5.222080  5.288490  2.413950
  S    -2.184455  2.108278 -0.366965
  S    -2.005271  5.401234 -0.185851
  S    -2.920286  2.454899  3.745357
  S    -2.825014  6.188251  3.737103
