16  
    
  C    -0.384489  3.346966  2.680353
  C    -0.223875  6.984056  2.562502
  C    -1.378804  2.546410  2.058175
  C    -1.403251  6.485500  1.813352
  N     0.677227  3.637630  1.958121
  N     0.820673  7.221450  1.795296
  N    -1.080132  2.101266  0.851972
  N    -1.208946  6.245889  0.521479
  N    -2.192724  3.072633  4.440954
  N    -2.219016  6.932643  4.232961
  S    -2.836163  2.297276  3.132394
  S    -2.869602  6.463984  2.744128
  S     0.381163  2.809380  0.508475
  S     0.357360  6.627953  0.253178
  S    -0.729312  3.724088  4.304743
  S    -0.610015  7.450473  4.209640
