16  
    
  C     2.065831  5.043864  3.136312
  C     2.050498  8.847434  3.402058
  C     0.886639  4.429127  2.463989
  C     0.808704  8.419028  2.756129
  N     3.143997  5.303383  2.361587
  N     3.104436  8.930294  2.557277
  N     1.011742  4.483870  1.135484
  N     0.907930  8.227219  1.453927
  N     0.385166  4.407129  4.929858
  N     0.200187  8.600631  5.165092
  S    -0.502445  4.134071  3.552590
  S    -0.513356  8.128807  3.749458
  S     2.601598  4.901556  0.822529
  S     2.461688  8.647405  0.981058
  S     1.973272  4.751665  4.887159
  S     1.827045  8.916460  5.177691
