16  
    
  C     3.010744  5.337363  3.397415
  C     3.654501  8.996763  3.414440
  C     1.916421  4.619352  2.810242
  C     2.412190  8.545870  2.888502
  N     4.095815  5.425167  2.604761
  N     4.519473  9.148107  2.383037
  N     2.027093  4.444855  1.492058
  N     2.275425  8.357998  1.562303
  N     1.320066  4.901008  5.220215
  N     1.979985  8.967205  5.350698
  S     0.605842  4.311030  3.830881
  S     1.132613  8.577151  4.034049
  S     3.566691  4.988647  1.141766
  S     3.784106  8.732745  0.942271
  S     2.841257  5.508555  5.054969
  S     3.557655  9.403444  5.157519
