16  
    
  C    -0.828580  3.183730  2.386407
  C    -0.820456  6.364614  2.455873
  C    -2.013115  2.634637  1.858900
  C    -2.039138  6.006765  1.732000
  N     0.213463  3.212087  1.554090
  N     0.261535  6.582889  1.719865
  N    -1.926622  2.418665  0.540214
  N    -1.779666  5.793853  0.452880
  N    -2.427146  2.780814  4.364077
  N    -2.722024  6.404163  4.226966
  S    -3.311848  2.603037  3.004391
  S    -3.468463  5.827237  2.869624
  S    -0.420605  2.883446  0.069877
  S    -0.131457  6.196433  0.141416
  S    -0.840790  3.259390  4.165230
  S    -1.117926  6.630602  4.157830
