16  
    
  C    -5.309256  1.225719  1.479097
  C    -5.313429  4.556973  1.538575
  C    -6.643612  0.959334  0.886442
  C    -6.580715  4.125438  1.029260
  N    -4.248818  1.185238  0.655878
  N    -4.313348  4.653915  0.642279
  N    -6.588709  0.655026 -0.413335
  N    -6.625393  3.927452 -0.317614
  N    -7.066197  1.111005  3.343219
  N    -6.869777  4.816004  3.533447
  S    -7.984556  0.849852  1.983505
  S    -7.772880  4.100551  2.324893
  S    -4.955478  0.781943 -0.848740
  S    -5.072720  4.292238 -0.798116
  S    -5.482777  1.329779  3.190984
  S    -5.203316  4.816278  3.272046
