16  
    
  C    -2.522435  2.115798  2.003248
  C    -2.482062  5.805275  2.103680
  C    -3.781240  1.971849  1.359305
  C    -3.701108  5.381528  1.408816
  N    -1.509240  2.142761  1.145919
  N    -1.416882  5.717888  1.371704
  N    -3.758443  1.565910  0.081192
  N    -3.471565  5.077323  0.141450
  N    -4.202547  2.246476  3.913370
  N    -4.417009  5.816478  3.765834
  S    -5.090932  2.077400  2.549283
  S    -5.143135  5.295905  2.384280
  S    -2.116730  1.685009 -0.321183
  S    -1.829787  5.408670 -0.143662
  S    -2.590996  2.325462  3.739736
  S    -2.756632  6.001972  3.782745
