16  
    
  C     2.044511  4.692950  2.983680
  C     2.346234  8.603778  3.113700
  C     0.847361  4.184851  2.355088
  C     1.141374  8.122298  2.492089
  N     3.024435  5.008264  2.195551
  N     3.390490  8.596139  2.269471
  N     0.929547  4.101774  1.046605
  N     1.204873  7.805173  1.185296
  N     0.334490  4.355147  4.827263
  N     0.453938  8.385464  4.892970
  S    -0.498609  3.989053  3.462326
  S    -0.195505  7.755690  3.515617
  S     2.527591  4.542988  0.667107
  S     2.761692  8.216064  0.780827
  S     1.841768  4.954800  4.645281
  S     2.029693  8.860451  4.879325
