16  
    
  C    -3.736020  1.912547  1.927416
  C    -3.567927  5.438525  1.930201
  C    -4.724066  1.072775  1.309758
  C    -4.768816  4.908001  1.382153
  N    -2.794185  2.394079  1.129490
  N    -2.569513  5.446741  1.070125
  N    -4.349383  0.792347  0.075399
  N    -4.717577  4.499075  0.115561
  N    -5.567530  1.375516  3.775284
  N    -5.210131  5.300890  3.962203
  S    -6.003433  0.517289  2.354210
  S    -6.060112  4.926346  2.560004
  S    -2.988092  1.680632 -0.346716
  S    -3.189003  4.855017 -0.408011
  S    -4.244678  2.372619  3.552861
  S    -3.556550  5.816100  3.690853
