16  
    
  C    -3.170367  1.937809  1.754905
  C    -3.099119  5.739762  2.091235
  C    -4.246384  1.238963  1.038625
  C    -4.363860  5.387053  1.469115
  N    -2.042113  2.225570  1.062743
  N    -2.211300  6.097948  1.122571
  N    -3.958101  1.144020 -0.273638
  N    -4.431604  5.365746  0.136860
  N    -5.149182  1.600038  3.520433
  N    -4.781723  5.379652  4.031617
  S    -5.684439  1.165658  2.033800
  S    -5.643607  5.151921  2.619192
  S    -2.474139  1.802346 -0.523454
  S    -2.860364  5.764165 -0.350065
  S    -3.567896  2.160744  3.461538
  S    -3.141788  5.855843  3.863981
