16  
    
  C    -4.449167  1.456787  1.895521
  C    -4.660396  4.814299  1.653189
  C    -5.575800  0.760745  1.332031
  C    -5.735803  4.323101  0.803051
  N    -3.466170  1.821741  1.055066
  N    -3.566192  5.230181  1.015056
  N    -5.571847  0.777042  0.022748
  N    -5.488167  4.431636 -0.503429
  N    -6.047494  0.869145  3.888588
  N    -6.361286  3.903283  3.304471
  S    -6.811939  0.272429  2.446905
  S    -7.104420  3.761003  1.786234
  S    -4.094238  1.390546 -0.403585
  S    -3.966662  5.045811 -0.558592
  S    -4.435484  1.320410  3.617351
  S    -4.911532  4.720094  3.382633
