16  
    
  C    -0.005034  3.573544  2.565342
  C     0.269935  7.536389  2.696076
  C    -1.147425  2.992109  1.944354
  C    -0.932602  7.085848  2.026659
  N     1.003093  3.838037  1.744679
  N     1.315441  7.711904  1.924810
  N    -0.980283  2.617736  0.652105
  N    -0.795726  7.004836  0.723977
  N    -1.787577  3.425144  4.407675
  N    -1.416547  7.201941  4.506096
  S    -2.410321  2.651122  3.086069
  S    -2.301626  6.975644  3.112084
  S     0.543077  3.175164  0.284786
  S     0.844761  7.262222  0.389327
  S    -0.253207  4.090535  4.258719
  S     0.227011  7.506100  4.352105
