16  
    
  C     0.555869  3.756957  2.965066
  C     0.584986  7.569579  2.872486
  C    -0.753285  3.587967  2.410412
  C    -0.558786  7.096709  2.093066
  N     1.517287  3.853999  2.042194
  N     1.712705  7.621850  2.182882
  N    -0.779630  3.237440  1.109086
  N    -0.279470  6.901937  0.824781
  N    -1.087900  3.705784  4.971916
  N    -1.323480  7.260232  4.505003
  S    -1.991173  3.291988  3.577034
  S    -2.002042  6.924713  2.973219
  S     0.848308  3.424607  0.567183
  S     1.380582  7.253615  0.621341
  S     0.477683  4.060093  4.680664
  S     0.283840  7.704312  4.545487
