16  
    
  C     2.252988  4.741078  3.239350
  C     2.351910  8.853226  3.500260
  C     1.037751  4.251680  2.571536
  C     1.129467  8.433124  2.887302
  N     3.304930  4.919671  2.448594
  N     3.390656  8.977957  2.627472
  N     1.011584  4.431410  1.242085
  N     1.115918  8.289259  1.563779
  N     0.606526  4.240876  5.111722
  N     0.504166  8.609719  5.315145
  S    -0.156176  3.860178  3.722810
  S    -0.246721  8.238210  3.883448
  S     2.630906  4.854409  0.952165
  S     2.677110  8.599747  1.096365
  S     2.227189  4.743209  4.966587
  S     2.055585  9.069487  5.253370
