16  
    
  C    -0.749928  2.982181  2.430977
  C    -1.014780  6.422481  2.529780
  C    -2.008424  2.649398  1.844339
  C    -2.234737  5.997534  1.806647
  N     0.318753  3.041338  1.659046
  N     0.060911  6.576935  1.745257
  N    -1.880998  2.403121  0.569087
  N    -2.030406  5.772704  0.503305
  N    -2.465175  2.729177  4.416855
  N    -2.902920  6.178930  4.209933
  S    -3.300284  2.436706  2.968284
  S    -3.576477  5.614018  2.820278
  S    -0.301434  2.771750  0.114815
  S    -0.532723  6.253393  0.230094
  S    -0.854002  3.263539  4.175250
  S    -1.288704  6.614481  4.224990
