16  
    
  C     1.014663  3.996216  2.704033
  C     1.075930  7.609763  3.141575
  C    -0.222112  3.417850  2.240427
  C    -0.186285  7.226719  2.528948
  N     1.918980  4.146097  1.757907
  N     2.057999  7.597119  2.281392
  N    -0.186778  2.895274  1.017094
  N    -0.082986  6.952397  1.237783
  N    -0.688570  4.347667  4.620667
  N    -0.596346  7.428892  5.056699
  S    -1.443436  3.407778  3.434036
  S    -1.444299  7.134784  3.717890
  S     1.326565  3.236511  0.471366
  S     1.507005  7.224081  0.769915
  S     0.896011  4.691658  4.339699
  S     0.922267  7.981276  4.786337
