16  
    
  C    -0.338025  3.311165  2.495247
  C    -0.302427  6.901310  2.267302
  C    -1.611367  2.984034  1.978600
  C    -1.545803  6.566813  1.723802
  N     0.624863  3.517286  1.596324
  N     0.660705  7.202347  1.422151
  N    -1.606262  2.642843  0.695838
  N    -1.537084  6.517327  0.385958
  N    -2.010111  3.163183  4.457586
  N    -1.872398  6.697150  4.240155
  S    -2.917153  2.953425  3.123254
  S    -2.797162  6.478392  2.879944
  S    -0.096562  3.084267  0.133228
  S     0.026757  6.838960 -0.033010
  S    -0.382949  3.395191  4.279287
  S    -0.262989  7.152494  3.983152
