16  
    
  C     2.154658  4.473923  3.060816
  C     1.948612  8.120601  3.143765
  C     0.987037  4.005822  2.334137
  C     0.852719  7.501930  2.492997
  N     3.199280  4.645804  2.231719
  N     3.021824  8.262375  2.374430
  N     1.231208  3.564741  1.088488
  N     1.145878  7.112242  1.258223
  N     0.301028  4.433035  4.738837
  N     0.091733  8.218796  4.844733
  S    -0.415103  3.971932  3.309405
  S    -0.591416  7.591857  3.499265
  S     2.753380  4.031174  0.745395
  S     2.698083  7.486726  0.963546
  S     1.876885  4.820060  4.780864
  S     1.716483  8.540981  4.803060
