16  
    
  C    -4.322006  1.724526  1.925681
  C    -4.341262  5.201801  1.759047
  C    -5.472246  1.100734  1.246264
  C    -5.671254  4.805079  1.200902
  N    -3.215454  1.723312  1.196606
  N    -3.380757  5.258604  0.840732
  N    -5.168920  0.693323  0.032329
  N    -5.643027  4.535568 -0.091212
  N    -6.088722  1.500353  3.661933
  N    -6.153476  5.165326  3.658218
  S    -6.838753  0.989017  2.268202
  S    -6.972854  4.654838  2.242891
  S    -3.625764  0.993345 -0.251686
  S    -4.106364  4.850706 -0.613341
  S    -4.517327  2.125077  3.638366
  S    -4.469280  5.616667  3.427717
