16  
    
  C    -1.169441  3.001807  2.392903
  C    -0.852905  6.940801  2.317931
  C    -2.450466  2.841213  1.704869
  C    -2.127829  6.612416  1.761518
  N    -0.159394  3.082780  1.505222
  N     0.098668  7.107695  1.418550
  N    -2.368934  2.600417  0.380517
  N    -2.126889  6.434588  0.466393
  N    -2.953370  3.195861  4.273355
  N    -2.339493  6.523343  4.267616
  S    -3.778140  2.956175  2.813950
  S    -3.386201  6.475702  2.931797
  S    -0.754920  2.677869  0.027465
  S    -0.494969  6.606291 -0.020870
  S    -1.279427  3.253811  4.092155
  S    -0.716142  6.930139  3.975180
