16  
    
  C     0.445534  3.774007  2.836705
  C     0.806834  7.640031  2.639893
  C    -0.588250  3.022592  2.091529
  C    -0.408848  7.138422  1.976812
  N     1.538131  3.954510  2.112465
  N     1.766496  8.040116  1.781200
  N    -0.280970  2.931470  0.785520
  N    -0.306648  7.252543  0.659993
  N    -1.368016  3.213306  4.553894
  N    -0.732771  6.793025  4.530751
  S    -1.975000  2.693712  3.021005
  S    -1.508453  6.502415  3.117088
  S     1.173390  3.634237  0.579162
  S     1.230093  7.842459  0.263357
  S     0.176255  3.725823  4.574067
  S     0.731022  7.507742  4.360174
