16  
    
  C     1.933233  4.148184  3.167152
  C     1.833883  7.908212  3.077137
  C     0.606105  3.922013  2.590159
  C     0.639234  7.468210  2.433150
  N     2.928056  4.362332  2.286581
  N     2.820015  8.256032  2.269610
  N     0.664909  3.901220  1.280795
  N     0.786450  7.406734  1.122602
  N     0.142762  4.264001  5.183803
  N     0.199012  7.441608  4.971242
  S    -0.768194  4.055201  3.716047
  S    -0.629039  7.091384  3.581751
  S     2.179551  4.083617  0.840285
  S     2.221769  8.065246  0.726116
  S     1.807859  4.218479  4.934163
  S     1.840586  7.835575  4.766871
