16  
    
  C     2.939297  5.173459  3.580649
  C     2.994821  8.904074  3.470921
  C     1.730986  4.873781  2.836020
  C     1.866281  8.300178  2.771423
  N     3.992486  5.537037  2.836697
  N     4.036642  9.095840  2.646199
  N     1.939979  4.905679  1.521853
  N     2.087956  8.010750  1.516104
  N     1.074105  4.753971  5.407456
  N     1.014455  8.514720  5.086880
  S     0.300449  4.692769  3.956310
  S     0.381079  8.031299  3.678576
  S     3.539084  5.225637  1.236029
  S     3.519281  8.599508  1.101496
  S     2.678380  5.354696  5.301942
  S     2.637680  8.799639  5.226063
