16  
    
  C    -2.284178  2.554886  1.934279
  C    -2.192020  5.859730  2.194362
  C    -3.531695  2.048139  1.391811
  C    -3.394787  5.446396  1.575661
  N    -1.265338  2.548494  1.059284
  N    -1.145443  6.182964  1.328476
  N    -3.498946  1.762068  0.094630
  N    -3.299716  5.314912  0.246494
  N    -3.925946  2.385726  3.947779
  N    -4.107324  5.925646  4.025941
  S    -4.780792  2.003594  2.551227
  S    -4.862513  5.426103  2.605959
  S    -1.955360  2.075564 -0.421969
  S    -1.736200  5.675394 -0.150367
  S    -2.299379  2.728967  3.672631
  S    -2.433059  6.161062  3.962917
