16  
    
  C    -3.173590  1.938331  1.751568
  C    -3.106280  5.742282  2.089635
  C    -4.241020  1.233789  1.039061
  C    -4.365424  5.388569  1.470538
  N    -2.042990  2.229972  1.056504
  N    -2.214958  6.095766  1.121813
  N    -3.958724  1.146406 -0.273451
  N    -4.436266  5.371690  0.136323
  N    -5.144380  1.597616  3.517486
  N    -4.770514  5.380541  4.028669
  S    -5.683530  1.164887  2.036781
  S    -5.641448  5.156880  2.615578
  S    -2.471279  1.807395 -0.525436
  S    -2.860105  5.764496 -0.347787
  S    -3.570796  2.161172  3.456579
  S    -3.138409  5.858548  3.862709
