16  
    
  C    -6.048217  0.801222  1.397565
  C    -6.077425  4.321838  1.800072
  C    -7.236616  0.176833  0.821000
  C    -7.246747  3.934722  1.051751
  N    -5.250323  1.305739  0.474740
  N    -5.002403  4.681155  1.085064
  N    -7.267842  0.137867 -0.518053
  N    -7.035408  3.873134 -0.268773
  N    -7.624140  0.278446  3.383215
  N    -7.903657  3.761738  3.612941
  S    -8.384059 -0.336475  2.024792
  S    -8.680167  3.550061  2.109661
  S    -5.913711  0.908367 -0.963340
  S    -5.504837  4.459556 -0.486745
  S    -6.121806  0.909606  3.115018
  S    -6.399493  4.486491  3.531837
