16  
    
  C    -1.473416  2.557400  2.264222
  C    -1.430717  6.632245  2.200464
  C    -2.568342  1.980073  1.600930
  C    -2.613379  6.122854  1.662139
  N    -0.440482  2.978762  1.497661
  N    -0.401924  6.756765  1.337399
  N    -2.315733  1.724101  0.316206
  N    -2.538774  5.814398  0.367614
  N    -3.418755  2.454266  3.935832
  N    -2.986746  6.229778  4.213011
  S    -3.939141  1.738917  2.558756
  S    -3.923044  6.110756  2.826942
  S    -0.799767  2.333231 -0.017720
  S    -1.000253  6.209083 -0.091990
  S    -1.870257  3.023659  3.921154
  S    -1.473349  6.806757  3.890243
