16  
    
  C     2.437081  4.948549  3.506229
  C     2.482252  8.608390  3.426259
  C     1.244062  4.540555  2.794061
  C     1.276777  8.048344  2.909879
  N     3.549558  5.061596  2.798566
  N     3.397383  8.867419  2.536512
  N     1.504030  4.313285  1.513629
  N     1.279797  7.861984  1.608606
  N     0.715947  4.487810  5.229409
  N     0.845048  8.509005  5.415266
  S    -0.052415  3.970104  3.908887
  S     0.036833  7.807946  4.111475
  S     3.128865  4.671925  1.205162
  S     2.808791  8.300493  1.034952
  S     2.260660  5.095347  5.219496
  S     2.406151  9.048908  5.137786
