16  
    
  C    -3.363087  1.884094  2.016352
  C    -3.088787  5.440531  2.139288
  C    -4.608727  1.449743  1.482838
  C    -4.230226  4.876062  1.427481
  N    -2.428844  2.077210  1.072630
  N    -2.118575  5.713716  1.285522
  N    -4.617568  1.337244  0.159903
  N    -4.072588  4.680364  0.098343
  N    -4.900394  1.343775  4.046171
  N    -4.950788  5.244813  3.853750
  S    -5.777597  1.056205  2.664187
  S    -5.562608  4.518427  2.439906
  S    -3.088527  1.750801 -0.372303
  S    -2.514477  5.117394 -0.226291
  S    -3.310168  1.885819  3.773905
  S    -3.336502  5.820003  3.820915
