16  
    
  C    -0.278322  3.208643  2.643418
  C    -0.240991  6.949715  2.435439
  C    -1.538425  2.705587  2.097727
  C    -1.428757  6.179672  1.885034
  N     0.631977  3.464420  1.712311
  N     0.669861  7.250011  1.528353
  N    -1.464104  2.484100  0.802078
  N    -1.265988  5.905250  0.596882
  N    -1.979549  2.864130  4.557848
  N    -1.990868  6.801441  4.346332
  S    -2.821874  2.523746  3.202236
  S    -2.644805  5.928583  3.088713
  S     0.042921  2.903977  0.279159
  S     0.192805  6.564182  0.114993
  S    -0.418292  3.362297  4.405482
  S    -0.473846  7.452948  4.069655
