16  
    
  C     2.850152  5.277093  3.862698
  C     2.449777  8.509579  3.402212
  C     1.647443  4.706460  3.299643
  C     1.286628  7.967141  2.736800
  N     3.814544  5.455874  2.992401
  N     3.471321  8.736539  2.560588
  N     1.883728  4.158959  2.104260
  N     1.406036  7.852134  1.422178
  N     1.221095  5.210506  5.785763
  N     0.328944  8.501846  5.030660
  S     0.351090  4.756428  4.455355
  S    -0.091008  7.664392  3.629342
  S     3.371976  4.764687  1.583901
  S     2.966128  8.266413  1.031831
  S     2.803178  5.730047  5.527229
  S     2.018954  8.888267  5.118236
