16  
    
  C    -3.188487  1.988322  1.886081
  C    -3.212726  5.737156  2.085456
  C    -4.275998  1.450409  1.129983
  C    -4.398262  5.243487  1.479401
  N    -2.026817  2.065449  1.185252
  N    -2.213984  6.047382  1.231673
  N    -4.089534  1.336841 -0.197109
  N    -4.324123  5.066406  0.164163
  N    -5.158961  1.755306  3.522659
  N    -4.836639  5.330448  4.001811
  S    -5.732660  1.142939  2.094449
  S    -5.634947  4.915201  2.632099
  S    -2.494281  1.575612 -0.364903
  S    -2.802949  5.699238 -0.231748
  S    -3.523887  2.043547  3.563939
  S    -3.200896  5.799539  3.817469
