16  
    
  C    -3.482211  1.772955  1.675588
  C    -3.633743  5.659671  1.751466
  C    -4.560794  1.052954  1.083285
  C    -4.798429  5.183736  1.034708
  N    -2.382643  1.961419  0.940095
  N    -2.606929  5.956336  0.931238
  N    -4.414658  0.758620 -0.190838
  N    -4.687280  5.227262 -0.289799
  N    -5.211663  1.514959  3.594774
  N    -5.473032  5.073540  3.582200
  S    -5.844294  0.787944  2.215788
  S    -6.181586  4.933262  2.126638
  S    -2.878959  1.312329 -0.593271
  S    -3.106656  5.620067 -0.590325
  S    -3.650231  2.109973  3.438812
  S    -3.888466  5.658706  3.442384
