16  
    
  C    -0.044549  3.623458  2.558371
  C     0.267453  7.472271  2.687597
  C    -1.220426  3.032903  1.901815
  C    -0.931836  7.058224  2.057473
  N     0.962534  3.800461  1.716433
  N     1.284577  7.700154  1.894166
  N    -0.974319  2.545764  0.698550
  N    -0.795403  6.937782  0.742643
  N    -1.744529  3.482929  4.449463
  N    -1.387269  7.234428  4.550913
  S    -2.471735  2.707776  3.066550
  S    -2.252928  6.916028  3.124135
  S     0.538602  3.198495  0.238146
  S     0.879980  7.242692  0.414706
  S    -0.235620  4.080269  4.200145
  S     0.205214  7.560290  4.381224
