16  
    
  C    -4.344659  1.437320  1.936314
  C    -4.610501  4.925888  1.728760
  C    -5.608591  0.950935  1.410610
  C    -5.740235  4.355834  0.983294
  N    -3.426975  1.813855  1.033385
  N    -3.620446  5.292782  0.932812
  N    -5.567880  0.798285  0.107094
  N    -5.562858  4.348401 -0.332526
  N    -5.928897  0.937141  3.912421
  N    -6.463695  4.575417  3.414410
  S    -6.784166  0.566395  2.595481
  S    -7.006094  3.850177  2.060037
  S    -4.095927  1.370950 -0.464992
  S    -4.039002  4.985378 -0.642444
  S    -4.466933  1.630124  3.639393
  S    -4.874391  5.006358  3.444796
