16  
    
  C     0.958728  4.192907  2.601413
  C     1.347286  7.946534  3.212832
  C    -0.048003  3.367133  1.903316
  C     0.097819  7.636058  2.586428
  N     2.091270  4.344318  1.872251
  N     2.322914  8.020150  2.328395
  N     0.228065  3.210372  0.604610
  N     0.143274  7.398544  1.294448
  N    -0.944224  3.920740  4.268979
  N    -0.461902  7.966075  5.083825
  S    -1.522700  3.218816  2.830479
  S    -1.256377  7.688138  3.628097
  S     1.752667  3.772781  0.371810
  S     1.731686  7.701969  0.821478
  S     0.603518  4.385169  4.268572
  S     1.159611  8.126179  4.918357
