16  
    
  C    -0.365608  3.432315  2.948202
  C    -0.950462  6.771126  2.724193
  C    -1.525959  2.946992  2.327136
  C    -2.011926  6.293045  1.887097
  N     0.606741  3.727940  2.074312
  N     0.162908  7.062043  2.067520
  N    -1.405727  2.663546  1.030455
  N    -1.693328  6.148580  0.614429
  N    -2.262771  3.339434  4.738761
  N    -2.927603  6.411468  4.337103
  S    -2.976084  2.844184  3.317493
  S    -3.461901  6.048255  2.839289
  S     0.127830  3.101632  0.618178
  S    -0.027182  6.616400  0.463639
  S    -0.628155  3.743634  4.653343
  S    -1.385204  6.991833  4.425467
