16  
    
  C     2.188793  4.453913  3.096558
  C     2.015537  8.280193  3.146040
  C     1.090093  4.013395  2.295239
  C     0.871557  7.629176  2.571060
  N     3.310117  4.296373  2.427903
  N     3.061729  8.273024  2.289449
  N     1.280893  3.806040  0.999817
  N     0.946761  7.167125  1.316709
  N     0.235662  4.472486  4.721811
  N     0.049675  8.464930  4.920182
  S    -0.383382  3.826100  3.202859
  S    -0.511235  7.527639  3.629765
  S     2.984852  4.017211  0.804944
  S     2.541639  7.441726  0.954086
  S     1.899887  4.739745  4.755754
  S     1.657350  9.028439  4.700487
