16  
    
  C    -5.497815  1.155851  1.298411
  C    -5.276578  5.251244  1.406192
  C    -6.651473  0.512417  0.601676
  C    -6.354947  4.483017  0.734631
  N    -4.436250  1.448025  0.560518
  N    -4.254348  5.568044  0.599526
  N    -6.531670  0.471250 -0.731952
  N    -6.166507  4.237305 -0.557023
  N    -7.309946  0.671428  3.041758
  N    -6.937622  4.426101  3.255427
  S    -7.959517  0.017913  1.660486
  S    -7.544979  3.784436  1.820916
  S    -4.952267  1.021794 -1.020284
  S    -4.678851  4.836175 -0.863452
  S    -5.690517  1.109889  3.079290
  S    -5.471478  5.224340  3.154329
