16  
    
  C     3.190966  5.121137  3.428098
  C     3.323381  9.124143  3.709038
  C     2.042870  4.649425  2.709679
  C     2.124613  8.813929  2.953843
  N     4.198143  5.389004  2.598581
  N     4.410778  9.157681  2.905187
  N     2.165779  4.450524  1.419092
  N     2.351449  8.593775  1.642267
  N     1.334078  4.721982  5.188749
  N     1.366166  8.891462  5.407257
  S     0.639781  4.288719  3.736507
  S     0.647045  8.556998  3.988717
  S     3.701955  4.831312  1.065781
  S     3.891398  8.964522  1.350309
  S     2.905789  5.375989  5.180383
  S     2.982856  9.261350  5.396756
