16  
    
  C     3.061204  5.078503  3.377300
  C     3.338835  8.919403  3.593091
  C     1.984794  4.410904  2.701897
  C     2.049906  8.633944  2.996800
  N     4.099595  5.475547  2.660455
  N     4.365667  9.032240  2.718306
  N     2.201615  4.332314  1.403619
  N     2.120750  8.489120  1.657340
  N     1.164491  5.086419  5.105608
  N     1.567887  8.870844  5.434493
  S     0.610785  4.136681  3.847923
  S     0.710343  8.581598  4.069265
  S     3.716296  5.002565  1.049660
  S     3.640559  8.813496  1.201339
  S     2.778440  5.364453  5.111584
  S     3.152535  9.300729  5.303206
