16  
    
  C    -4.291613  1.574649  1.977130
  C    -4.595496  5.063949  1.680790
  C    -5.550429  1.077061  1.369525
  C    -5.816703  4.545897  1.064871
  N    -3.330103  1.799861  1.092200
  N    -3.638580  5.364249  0.803104
  N    -5.447488  0.768023  0.074131
  N    -5.707259  4.329082 -0.247617
  N    -6.036156  1.240146  3.902441
  N    -6.340682  4.649661  3.669470
  S    -6.839107  0.725671  2.559722
  S    -7.117310  4.279677  2.223494
  S    -3.848316  1.241407 -0.385992
  S    -4.204878  4.827954 -0.691317
  S    -4.568264  1.819021  3.681258
  S    -4.848184  5.353432  3.497195
