16  
    
  C    -1.174479  3.023187  2.391649
  C    -0.862571  6.932658  2.314333
  C    -2.443086  2.828815  1.699842
  C    -2.142278  6.624731  1.777819
  N    -0.164376  3.067162  1.511238
  N     0.089576  7.132245  1.410320
  N    -2.383777  2.614033  0.368828
  N    -2.128954  6.443941  0.474578
  N    -2.952263  3.198539  4.277111
  N    -2.335418  6.525239  4.264480
  S    -3.784518  2.946038  2.819575
  S    -3.397986  6.481848  2.939110
  S    -0.759976  2.683901  0.019801
  S    -0.500721  6.608431 -0.015831
  S    -1.273604  3.251547  4.085269
  S    -0.727759  6.930854  3.979035
