16  
    
  C     0.204641  3.495189  2.760890
  C     0.272985  7.396064  2.695645
  C    -0.954026  3.013485  2.055231
  C    -1.006328  7.324625  2.089067
  N     1.148849  4.017003  1.983935
  N     1.290381  7.473404  1.878327
  N    -0.765740  2.851039  0.756145
  N    -0.949115  7.382574  0.771771
  N    -1.650982  3.020317  4.570755
  N    -1.415740  7.382647  4.574366
  S    -2.336715  2.648318  3.108626
  S    -2.315269  7.267455  3.196518
  S     0.786749  3.451429  0.469690
  S     0.714227  7.594683  0.337008
  S    -0.100491  3.755333  4.458802
  S     0.245162  7.558568  4.360794
