16  
    
  C    -1.499505  2.806426  2.134638
  C    -1.244436  6.713409  2.191543
  C    -2.544238  2.047723  1.464311
  C    -2.539042  6.328650  1.635043
  N    -0.508354  3.129184  1.322795
  N    -0.276968  6.794683  1.258985
  N    -2.234838  1.646527  0.241936
  N    -2.508566  6.160357  0.298251
  N    -3.382909  2.445760  3.846789
  N    -2.900976  6.597106  4.229623
  S    -3.927560  1.639522  2.502454
  S    -3.770034  6.243535  2.821015
  S    -0.817309  2.402701 -0.167964
  S    -0.924018  6.321966 -0.197946
  S    -1.844091  3.028989  3.789454
  S    -1.305835  7.080534  3.959530
