16  
    
  C    -4.453972  1.242377  1.892206
  C    -4.633663  4.768174  1.658811
  C    -5.582286  0.698806  1.175737
  C    -5.813614  4.390292  0.850932
  N    -3.475371  1.546876  1.034878
  N    -3.558840  5.095785  0.902564
  N    -5.639019  0.748356 -0.144058
  N    -5.665956  4.481878 -0.465290
  N    -6.142643  0.673004  3.785144
  N    -6.596520  4.062499  3.250916
  S    -6.892034  0.368145  2.253949
  S    -7.163386  3.791237  1.725330
  S    -4.062859  1.334646 -0.483252
  S    -4.172745  5.018249 -0.641938
  S    -4.510489  1.122229  3.628912
  S    -4.983107  4.487299  3.328661
