16  
    
  C    -1.577111  2.638907  2.402897
  C    -1.667190  6.165647  2.365531
  C    -2.781440  2.280621  1.683042
  C    -2.843681  5.680654  1.690123
  N    -0.504156  2.788429  1.634312
  N    -0.643639  6.381386  1.554610
  N    -2.553344  1.872630  0.454541
  N    -2.706728  5.744209  0.384123
  N    -3.528468  2.476914  4.108679
  N    -3.432767  6.077235  4.263802
  S    -4.224289  2.030834  2.660748
  S    -4.147187  5.447589  2.877515
  S    -0.941007  2.228040  0.095537
  S    -1.107186  6.033362  0.003934
  S    -1.915461  2.891702  4.083570
  S    -1.827223  6.510930  4.145487
