16  
    
  C    -0.342983  3.308884  2.642972
  C    -0.311309  6.932968  2.425574
  C    -1.572508  2.697413  2.061634
  C    -1.434141  6.168896  1.919892
  N     0.720167  3.349579  1.861167
  N     0.654527  7.186788  1.561121
  N    -1.414974  2.426708  0.771277
  N    -1.294897  5.921915  0.625353
  N    -2.059471  2.869371  4.635542
  N    -1.990465  6.853521  4.436600
  S    -2.860106  2.474345  3.185421
  S    -2.688013  5.977405  3.210206
  S     0.095541  2.956644  0.328993
  S     0.177006  6.484777  0.103689
  S    -0.513256  3.482141  4.348917
  S    -0.520165  7.502049  4.080122
