16  
    
  C     3.018070  5.332475  3.402546
  C     3.669250  8.993112  3.418619
  C     1.935186  4.633022  2.807117
  C     2.428561  8.524299  2.876386
  N     4.109506  5.423337  2.609485
  N     4.514207  9.151794  2.381356
  N     2.032491  4.441620  1.499978
  N     2.297062  8.373632  1.563937
  N     1.317438  4.923673  5.219490
  N     1.983453  8.958701  5.347471
  S     0.609264  4.308207  3.828908
  S     1.141850  8.573397  4.024248
  S     3.552321  4.995149  1.137093
  S     3.782708  8.736779  0.946657
  S     2.847580  5.504501  5.064441
  S     3.562794  9.415901  5.159705
