16  
    
  C    -5.370981  1.144289  1.319863
  C    -5.477947  4.763547  1.570170
  C    -6.539521  0.513972  0.667536
  C    -6.753769  4.445114  0.964069
  N    -4.351025  1.428944  0.528956
  N    -4.442279  4.921222  0.735947
  N    -6.422127  0.417149 -0.651618
  N    -6.673790  4.312129 -0.362279
  N    -7.138574  0.901704  3.179294
  N    -7.184379  4.475037  3.562082
  S    -7.815943  0.139066  1.784000
  S    -8.029316  4.195746  2.164829
  S    -4.879012  0.972832 -1.025624
  S    -5.078242  4.552681 -0.757907
  S    -5.490508  1.255912  3.084346
  S    -5.580300  4.861828  3.295781
