16  
    
  C    -1.489404  3.014150  2.060119
  C    -0.982514  7.085269  2.346251
  C    -2.599310  2.358681  1.330685
  C    -2.287044  6.657348  1.807813
  N    -0.592162  3.462472  1.168146
  N     0.028563  7.091565  1.430528
  N    -2.393444  2.115590  0.015467
  N    -2.275835  6.343531  0.500765
  N    -3.259696  2.620495  3.798751
  N    -2.660589  6.636307  4.350315
  S    -3.884044  1.907082  2.439203
  S    -3.592539  6.690189  2.955954
  S    -0.942892  2.871263 -0.328983
  S    -0.779460  6.724487 -0.031986
  S    -1.817468  3.420554  3.703694
  S    -1.054047  7.114144  4.117517
