16  
    
  C    -4.329912  1.576224  2.051414
  C    -4.637962  5.256371  1.704592
  C    -5.451212  0.906328  1.373815
  C    -5.823576  4.636494  1.158841
  N    -3.319342  1.742620  1.237101
  N    -3.655695  5.339437  0.839712
  N    -5.316364  0.709909  0.081715
  N    -5.755628  4.345937 -0.120633
  N    -6.152717  1.388980  3.844172
  N    -6.282533  4.768192  3.598727
  S    -6.831599  0.829202  2.373460
  S    -7.119170  4.487377  2.234496
  S    -3.799247  1.251097 -0.300035
  S    -4.254476  4.831223 -0.618468
  S    -4.522482  1.927880  3.691046
  S    -4.761632  5.407640  3.390760
