16  
    
  C    -1.090569  3.071788  2.428391
  C    -0.617724  6.491681  2.353284
  C    -2.314692  2.735019  1.781987
  C    -1.857129  6.190332  1.708578
  N     0.032482  3.101900  1.681788
  N     0.405684  6.660903  1.505410
  N    -2.193888  2.618473  0.451799
  N    -1.801302  6.207546  0.370625
  N    -2.854484  3.212504  4.250134
  N    -2.331234  6.592449  4.171640
  S    -3.666459  2.945887  2.865748
  S    -3.204780  6.211161  2.774062
  S    -0.519191  2.677623  0.152256
  S    -0.243135  6.533918  0.011976
  S    -1.230075  3.366115  4.169574
  S    -0.700007  6.857925  4.001460
