16  
    
  C    -0.345324  3.353110  2.638874
  C    -0.321272  7.055085  2.414522
  C    -1.483334  2.668485  2.072567
  C    -1.451573  6.710180  1.690539
  N     0.708510  3.341499  1.811234
  N     0.755231  7.213490  1.676395
  N    -1.404096  2.507474  0.744610
  N    -1.283259  6.554695  0.378288
  N    -2.188287  3.185183  4.481485
  N    -2.085755  6.797526  4.127340
  S    -2.818401  2.424570  3.141076
  S    -2.887643  6.568644  2.684150
  S     0.182180  2.824491  0.337672
  S     0.376202  6.770289  0.180515
  S    -0.594910  3.725197  4.261195
  S    -0.483244  7.268424  4.098942
