16  
    
  C     1.093810  4.276984  2.831029
  C     1.575636  8.676291  2.956332
  C    -0.113458  3.861919  2.047150
  C     0.422178  8.101801  2.368561
  N     2.185308  4.666128  2.128137
  N     2.568912  8.925178  2.123619
  N     0.174817  3.600314  0.773869
  N     0.605244  7.878200  1.084734
  N    -0.861550  3.846113  4.508901
  N    -0.105381  8.464505  4.871666
  S    -1.480665  3.349618  3.003827
  S    -0.898418  8.073870  3.515654
  S     1.699125  4.216857  0.538013
  S     2.132490  8.378019  0.587649
  S     0.688470  4.345815  4.500042
  S     1.466117  8.876702  4.656251
