16  
    
  C    -1.898287  2.223082  2.001473
  C    -1.957279  6.035352  2.140172
  C    -3.117440  1.845373  1.362678
  C    -3.247529  5.795171  1.488693
  N    -0.821185  2.345544  1.229518
  N    -0.932351  6.030097  1.245565
  N    -3.029372  1.918792  0.052289
  N    -3.193598  5.475248  0.213870
  N    -3.788028  2.370028  3.814401
  N    -3.656268  5.659838  4.088390
  S    -4.480819  1.748130  2.415424
  S    -4.479606  5.615172  2.640936
  S    -1.439783  2.120570 -0.328621
  S    -1.585339  5.707460 -0.211890
  S    -2.126039  2.429407  3.764016
  S    -2.072154  6.059888  3.907396
