16  
    
  C    -1.537206  2.977040  1.970408
  C    -0.976814  6.917180  2.291620
  C    -2.575741  2.238578  1.376189
  C    -2.268802  6.571165  1.779615
  N    -0.521355  3.345693  1.198317
  N    -0.069523  7.158302  1.360439
  N    -2.414188  2.162343  0.066766
  N    -2.310059  6.332971  0.472551
  N    -3.308029  2.558741  3.819773
  N    -2.715910  6.740274  4.371555
  S    -3.862252  1.822482  2.433686
  S    -3.563014  6.658199  2.963414
  S    -0.938531  2.776891 -0.327663
  S    -0.768015  6.683914 -0.100655
  S    -1.878346  3.386573  3.668189
  S    -1.105614  7.118883  4.067095
