16  
    
  C     2.953078  5.137768  3.579509
  C     3.037262  8.895575  3.471897
  C     1.736757  4.906469  2.846491
  C     1.889103  8.289131  2.760475
  N     3.985624  5.556529  2.822253
  N     4.024055  9.113658  2.624235
  N     1.924592  4.878731  1.515810
  N     2.076602  7.994007  1.503018
  N     1.073495  4.793306  5.398920
  N     1.020615  8.486489  5.091396
  S     0.311091  4.659522  3.940428
  S     0.384445  8.017376  3.667330
  S     3.530354  5.240059  1.239498
  S     3.493068  8.619866  1.095720
  S     2.677480  5.356183  5.287360
  S     2.628238  8.809793  5.232538
