16  
    
  C     0.957239  4.208638  2.605372
  C     1.139674  7.675868  3.155089
  C    -0.112053  3.336057  2.230516
  C    -0.164218  7.300259  2.527010
  N     1.999887  4.091079  1.738178
  N     2.123972  7.734912  2.269908
  N     0.017781  2.861848  0.986557
  N    -0.139767  7.105367  1.205512
  N    -0.762433  4.328682  4.495056
  N    -0.624813  7.531075  5.049827
  S    -1.481307  3.417794  3.361100
  S    -1.497581  7.202728  3.665658
  S     1.493822  3.369124  0.401179
  S     1.441644  7.354521  0.837423
  S     0.855994  4.772501  4.229685
  S     1.006988  8.026860  4.874582
