16  
    
  C    -5.413859  1.038906  1.595611
  C    -5.207113  4.729704  1.479147
  C    -6.669643  0.881096  0.992133
  C    -6.483594  4.420962  0.888500
  N    -4.371862  1.081443  0.760229
  N    -4.229964  4.657089  0.600761
  N    -6.553439  0.683493 -0.303793
  N    -6.405216  4.020401 -0.366489
  N    -7.186080  1.082629  3.510590
  N    -6.794090  4.661986  3.429069
  S    -8.069496  0.898650  2.037736
  S    -7.720913  4.388449  2.036666
  S    -5.032245  0.885154 -0.724465
  S    -4.797680  4.148361 -0.838625
  S    -5.518091  1.302817  3.291491
  S    -5.220674  5.105153  3.136895
