16  
    
  C    -4.425334  1.122841  1.855878
  C    -4.665658  4.674150  1.632053
  C    -5.626861  0.668169  1.226843
  C    -5.843732  4.389619  0.880103
  N    -3.462468  1.486691  1.039023
  N    -3.643241  5.061344  0.892256
  N    -5.646876  0.745935 -0.090691
  N    -5.723246  4.462658 -0.437024
  N    -6.161237  0.644007  3.690682
  N    -6.623022  4.134203  3.250774
  S    -6.935322  0.401918  2.210119
  S    -7.191146  3.812753  1.698650
  S    -4.075117  1.328516 -0.492077
  S    -4.203631  5.020580 -0.655523
  S    -4.522187  1.115280  3.552023
  S    -4.950163  4.476486  3.338644
