16  
    
  C     0.508969  3.474498  2.834637
  C     0.792752  7.706177  2.631618
  C    -0.648994  3.178820  2.034555
  C    -0.377128  7.209650  1.949274
  N     1.499054  3.975291  2.111156
  N     1.791443  8.029116  1.813901
  N    -0.491087  3.012883  0.731376
  N    -0.407940  7.220116  0.602176
  N    -1.362515  3.225997  4.518690
  N    -0.791028  6.752206  4.574653
  S    -1.953959  2.757504  3.093113
  S    -1.574681  6.530841  3.098942
  S     1.155923  3.590304  0.515388
  S     1.130048  7.822284  0.246911
  S     0.263553  3.715525  4.523524
  S     0.685841  7.559041  4.422441
