16  
    
  C     0.082968  3.502248  2.391271
  C     0.300682  7.574932  2.789664
  C    -1.210842  3.296307  1.785602
  C    -0.834794  6.869461  2.187862
  N     1.051713  3.705008  1.476193
  N     1.361868  7.643759  1.986981
  N    -1.154895  3.105378  0.461882
  N    -0.590594  6.478393  0.910072
  N    -1.686168  3.505943  4.288385
  N    -1.447466  7.275966  4.710389
  S    -2.513795  3.044570  2.936280
  S    -2.146721  6.600596  3.387269
  S     0.433946  3.380191  0.001577
  S     0.954288  7.061418  0.523443
  S    -0.057497  3.870768  4.024837
  S     0.059134  7.950073  4.502869
