16  
    
  C     0.149284  3.548123  2.296153
  C     0.203345  7.243866  2.918503
  C    -1.094811  3.052628  1.638900
  C    -1.018012  6.745473  2.233776
  N     1.194616  3.693507  1.523202
  N     1.231893  7.532772  2.119066
  N    -0.960963  2.984384  0.325610
  N    -0.852105  6.593858  0.922524
  N    -1.472443  2.891032  4.265390
  N    -1.701308  7.220835  4.642994
  S    -2.385075  2.858340  2.811702
  S    -2.339468  6.519002  3.252647
  S     0.574082  3.500691 -0.050731
  S     0.704988  6.996239  0.572524
  S     0.124304  3.400786  4.043956
  S    -0.123078  7.727051  4.548077
