16  
    
  C    -3.306789  1.755499  2.035197
  C    -3.085831  5.457943  2.059831
  C    -4.618558  1.473353  1.442323
  C    -4.239670  4.889030  1.435630
  N    -2.415090  1.990665  1.091973
  N    -2.036666  5.681753  1.264914
  N    -4.617556  1.273837  0.107704
  N    -4.121786  4.723228  0.156214
  N    -4.917864  1.348363  4.088142
  N    -4.954371  5.193163  3.863434
  S    -5.826287  1.058820  2.703438
  S    -5.593821  4.591589  2.451709
  S    -3.129576  1.726093 -0.436287
  S    -2.503125  5.129829 -0.181654
  S    -3.305855  1.891741  3.836843
  S    -3.349123  5.783334  3.738589
