16  
    
  C    -1.562342  2.805892  2.112048
  C    -1.319012  6.710998  2.217644
  C    -2.522392  1.910995  1.535132
  C    -2.554938  6.347634  1.641140
  N    -0.445195  3.058739  1.373902
  N    -0.349719  6.733182  1.324266
  N    -2.263608  1.614872  0.245535
  N    -2.505936  5.968492  0.386242
  N    -3.405694  2.470697  3.886063
  N    -2.882895  6.429855  4.133118
  S    -3.928665  1.669950  2.487047
  S    -3.867676  6.190056  2.793485
  S    -0.816625  2.387465 -0.104724
  S    -0.964685  6.299066 -0.148095
  S    -1.813756  3.016170  3.888728
  S    -1.324164  6.998586  3.913271
