16  
    
  C    -0.724330  2.928475  2.569144
  C    -1.274679  6.488586  2.444300
  C    -1.966616  2.490672  1.931028
  C    -2.426203  5.991727  1.764691
  N     0.331934  3.042804  1.753166
  N    -0.221343  6.869776  1.712448
  N    -1.868467  2.490162  0.612730
  N    -2.175657  5.760931  0.478055
  N    -2.542738  2.885533  4.395528
  N    -2.962252  5.935339  4.358676
  S    -3.335793  2.441906  3.000192
  S    -3.701125  5.620375  2.944393
  S    -0.261947  2.683182  0.217636
  S    -0.610259  6.317226  0.208630
  S    -0.927106  3.286780  4.249772
  S    -1.427098  6.548380  4.228932
