16  
    
  C    -1.215896  3.324050  2.110293
  C    -1.127290  7.178799  2.615898
  C    -2.408192  2.776972  1.590340
  C    -2.358979  6.824396  1.998364
  N    -0.294733  3.662180  1.205177
  N    -0.083660  7.172988  1.790566
  N    -2.391363  2.547836  0.267156
  N    -2.239006  6.626250  0.678404
  N    -2.766959  2.915171  4.084085
  N    -2.790177  6.607912  4.502512
  S    -3.564443  2.302734  2.783120
  S    -3.652105  6.701410  3.096853
  S    -0.975196  3.258422 -0.263535
  S    -0.631305  6.949569  0.245038
  S    -1.267669  3.558160  3.845227
  S    -1.165255  6.955568  4.365611
