16  
    
  C     0.960963  3.936417  2.653830
  C     1.428779  7.889045  3.197606
  C    -0.146912  3.481535  1.837064
  C     0.132212  7.645500  2.540251
  N     1.951937  4.357104  1.845958
  N     2.487509  7.918426  2.385421
  N     0.167942  3.204996  0.564378
  N     0.207238  7.541111  1.213201
  N    -0.977507  3.717229  4.254106
  N    -0.377737  7.952990  5.111223
  S    -1.568695  3.249088  2.781155
  S    -1.228784  7.709828  3.708972
  S     1.677857  3.809737  0.313248
  S     1.814008  7.749515  0.863963
  S     0.627028  4.272369  4.309245
  S     1.296715  8.085211  4.987683
