16  
    
  C    -5.402759  1.162240  1.674944
  C    -5.164813  4.747539  1.432329
  C    -6.634893  0.943650  1.050487
  C    -6.427207  4.426570  0.796552
  N    -4.365624  1.094603  0.842588
  N    -4.152213  4.734284  0.576881
  N    -6.570211  0.767146 -0.272290
  N    -6.328844  4.067037 -0.473472
  N    -7.226937  1.011582  3.591715
  N    -6.962483  5.169102  3.142968
  S    -8.007767  0.706823  2.114955
  S    -7.744023  4.470415  1.827232
  S    -4.962037  0.736677 -0.649566
  S    -4.732296  4.292488 -0.915643
  S    -5.569520  1.270389  3.362447
  S    -5.281725  5.118808  3.126040
