16  
    
  C     0.603090  3.839654  2.999123
  C     0.719960  7.493867  2.822199
  C    -0.657907  3.374402  2.443916
  C    -0.437038  7.098201  2.110322
  N     1.544237  4.056008  2.087873
  N     1.805427  7.612157  2.070371
  N    -0.569323  2.919593  1.200047
  N    -0.313355  6.884602  0.802958
  N    -1.115360  3.953284  4.876797
  N    -1.251571  7.148549  4.641212
  S    -1.991351  3.301712  3.556591
  S    -1.879738  6.850641  3.089618
  S     0.999102  3.311965  0.667151
  S     1.335981  7.212172  0.498970
  S     0.460859  4.232467  4.634910
  S     0.286490  7.783100  4.546697
