16  
    
  C    -5.526888  0.974820  1.344417
  C    -4.988843  4.911910  1.340204
  C    -6.690135  0.410428  0.658928
  C    -6.135985  4.161625  0.790121
  N    -4.535463  1.267111  0.516101
  N    -4.183982  5.420994  0.440943
  N    -6.529044  0.345674 -0.637103
  N    -6.102263  4.078417 -0.512618
  N    -7.209966  0.464722  3.213556
  N    -6.662574  4.384963  3.289933
  S    -8.015180  0.112284  1.782271
  S    -7.444256  3.847638  1.931743
  S    -4.993750  0.874072 -1.000487
  S    -4.809666  4.963388 -1.049929
  S    -5.697916  1.224092  3.124666
  S    -5.319320  5.340959  2.993226
