16  
    
  C    -1.523990  2.749253  2.187786
  C    -1.331917  6.738388  2.207404
  C    -2.490468  1.924307  1.526015
  C    -2.597994  6.289197  1.648260
  N    -0.486343  3.022096  1.401421
  N    -0.305142  6.724957  1.357680
  N    -2.266616  1.625747  0.239591
  N    -2.535033  5.880778  0.379238
  N    -3.404848  2.474781  3.905294
  N    -2.907651  6.352030  4.106338
  S    -3.928915  1.689666  2.499708
  S    -3.893660  6.171701  2.803079
  S    -0.820282  2.369845 -0.070985
  S    -0.992427  6.286579 -0.107714
  S    -1.822266  3.016252  3.909297
  S    -1.352381  6.943495  3.883882
