16  
    
  C    -4.412848  1.087835  1.843427
  C    -4.681596  4.648532  1.629108
  C    -5.642521  0.668093  1.232279
  C    -5.851544  4.382441  0.884468
  N    -3.460003  1.474058  1.038151
  N    -3.664683  5.054302  0.890590
  N    -5.633108  0.747966 -0.083707
  N    -5.737968  4.461744 -0.430145
  N    -6.162362  0.639503  3.662308
  N    -6.621727  4.152520  3.253078
  S    -6.950203  0.408846  2.206415
  S    -7.201143  3.818407  1.697767
  S    -4.081401  1.325299 -0.497110
  S    -4.205198  5.021585 -0.665216
  S    -4.528463  1.113257  3.536194
  S    -4.944607  4.474512  3.342020
