16  
    
  C    -0.045048  3.354441  2.541009
  C    -0.030899  7.120804  2.661182
  C    -1.103668  2.602024  1.835181
  C    -1.217528  6.729588  2.022207
  N     1.003200  3.627874  1.759287
  N     0.951064  7.424810  1.822561
  N    -0.974220  2.704781  0.517445
  N    -1.083400  6.556538  0.718457
  N    -1.861148  2.959876  4.316869
  N    -1.767054  6.546761  4.465286
  S    -2.415435  2.299519  2.876169
  S    -2.564381  6.425854  3.016208
  S     0.592204  3.218960  0.222110
  S     0.383935  7.208158  0.310381
  S    -0.250467  3.520846  4.229283
  S    -0.166360  7.075691  4.409837
