16  
    
  C     0.645829  3.744061  3.203944
  C     1.096512  7.582375  2.759131
  C    -0.514939  3.392231  2.390501
  C    -0.025470  7.029794  2.087174
  N     1.663838  4.089090  2.431637
  N     2.182872  7.671402  2.006715
  N    -0.250449  3.235344  1.111311
  N     0.177257  6.887130  0.789295
  N    -1.194081  3.122882  4.870999
  N    -0.726480  7.214860  4.600383
  S    -1.847185  2.858068  3.384335
  S    -1.361918  6.714446  3.117343
  S     1.238510  3.859144  0.899154
  S     1.784379  7.237613  0.472449
  S     0.407732  3.666085  4.946677
  S     0.807064  7.851444  4.463024
