16  
    
  C    -1.919417  2.483872  2.614382
  C    -1.702690  5.975694  2.321412
  C    -3.113817  2.049535  1.917408
  C    -2.984403  5.601981  1.729308
  N    -0.843671  2.707582  1.827356
  N    -0.684365  6.106591  1.448396
  N    -2.893083  1.809783  0.620899
  N    -2.904110  5.501647  0.409074
  N    -3.753112  2.096368  4.413443
  N    -3.469330  5.686338  4.232174
  S    -4.423485  1.695692  2.948416
  S    -4.315716  5.469942  2.835575
  S    -1.298879  2.274918  0.314275
  S    -1.381267  6.019206 -0.112614
  S    -2.134978  2.452370  4.347790
  S    -1.868522  5.842179  4.029950
