16  
    
  C     3.571675  5.192487  3.599779
  C     3.460930  9.092721  3.574759
  C     2.319961  5.020756  2.888900
  C     2.357350  8.466224  2.890016
  N     4.542979  5.587277  2.771870
  N     4.491587  9.442854  2.776065
  N     2.421899  4.926327  1.567988
  N     2.471677  8.367021  1.585803
  N     1.817045  5.055150  5.508877
  N     1.694053  8.636621  5.367823
  S     0.962171  4.820790  4.038971
  S     0.983259  8.101656  3.935170
  S     4.031020  5.366623  1.255659
  S     4.009694  9.072861  1.252644
  S     3.426466  5.429605  5.289468
  S     3.252206  9.282146  5.189020
