16  
    
  C     3.140810  5.080640  3.396721
  C     3.283855  9.191568  3.741139
  C     1.931394  4.728333  2.711656
  C     2.121297  8.855665  2.960575
  N     4.266210  5.182385  2.673166
  N     4.421742  9.396835  3.028021
  N     2.173352  4.470630  1.444400
  N     2.450917  8.678120  1.664557
  N     1.359600  4.994912  5.203114
  N     1.457111  8.762940  5.392437
  S     0.602264  4.499548  3.815875
  S     0.728822  8.745972  3.914217
  S     3.742274  4.821430  1.159557
  S     4.059889  8.965221  1.512375
  S     3.040896  5.260423  5.111467
  S     3.010826  9.280964  5.461723
