16  
    
  C    -0.304857  3.448157  2.967303
  C    -0.886319  6.888847  2.733310
  C    -1.533730  2.990071  2.307710
  C    -1.966713  6.303556  1.898032
  N     0.598129  3.810981  2.054058
  N     0.227611  7.011160  2.017126
  N    -1.397692  2.658458  1.032201
  N    -1.638093  6.137715  0.606901
  N    -2.263101  3.305370  4.804451
  N    -2.862353  6.460463  4.346005
  S    -2.955294  2.873693  3.287288
  S    -3.421056  6.047664  2.861088
  S     0.138743  3.123381  0.608067
  S    -0.018244  6.633039  0.418855
  S    -0.613477  3.737189  4.640955
  S    -1.344004  7.004911  4.448107
