16  
    
  C    -1.291287  3.342405  2.073095
  C    -1.017860  6.831092  2.602755
  C    -2.489358  2.766123  1.499310
  C    -2.238525  6.575839  1.967034
  N    -0.322422  3.674817  1.215716
  N    -0.046252  7.056097  1.748766
  N    -2.411593  2.583700  0.167945
  N    -2.250106  6.750296  0.653637
  N    -2.911924  2.857673  3.994646
  N    -2.757999  6.827073  4.435876
  S    -3.656338  2.198197  2.669570
  S    -3.566646  6.675734  3.031093
  S    -0.935072  3.249711 -0.291082
  S    -0.672828  7.031655  0.235270
  S    -1.484497  3.639765  3.750166
  S    -1.104648  6.987650  4.297888
