16  
    
  C     2.889122  5.233993  3.284488
  C     2.909649  9.064890  3.437923
  C     1.697356  4.649594  2.706092
  C     1.753408  8.475127  2.786211
  N     3.804147  5.527324  2.405788
  N     3.845938  9.479326  2.561161
  N     1.827105  4.284556  1.444762
  N     1.804497  8.335871  1.474644
  N     1.397231  4.648948  5.200461
  N     1.138193  8.408529  5.232593
  S     0.492137  4.191367  3.845937
  S     0.584310  7.830055  3.782585
  S     3.268798  4.985448  0.945681
  S     3.353070  8.903285  1.039686
  S     2.788786  5.520005  4.979943
  S     2.648336  9.123652  5.227253
