16  
    
  C    -5.486847  1.005877  1.316949
  C    -5.326124  5.197034  1.469223
  C    -6.600870  0.530955  0.587169
  C    -6.424606  4.495431  0.810548
  N    -4.555952  1.434124  0.504207
  N    -4.339631  5.469820  0.658286
  N    -6.420238  0.477990 -0.725182
  N    -6.195222  4.278887 -0.441341
  N    -7.287344  0.601278  3.106475
  N    -6.975003  4.284008  3.256980
  S    -7.928019  0.080058  1.625271
  S    -7.667130  3.899777  1.793392
  S    -4.929936  1.095164 -1.049743
  S    -4.688340  4.836381 -0.845857
  S    -5.699657  1.131355  3.056596
  S    -5.587885  5.205474  3.151580
