16  
    
  C    -3.464696  1.713891  1.753718
  C    -3.676928  5.679776  1.803170
  C    -4.535491  0.992763  1.199801
  C    -4.872044  5.371435  1.029267
  N    -2.507541  2.051441  0.872204
  N    -2.629203  5.900122  1.034972
  N    -4.331945  0.694313 -0.068235
  N    -4.701963  5.224121 -0.276004
  N    -5.300971  1.519939  3.632231
  N    -5.332552  5.108519  3.567666
  S    -5.924694  0.759855  2.303528
  S    -6.165707  4.941545  2.088356
  S    -2.892007  1.398060 -0.570530
  S    -3.141753  5.668244 -0.594440
  S    -3.758037  2.125102  3.490003
  S    -3.801789  5.707080  3.539683
