16  
    
  C     0.871851  3.944583  2.500019
  C     1.507414  8.101139  3.306911
  C    -0.338994  3.267109  1.857003
  C     0.219275  7.947877  2.650119
  N     1.927208  4.077258  1.693091
  N     2.529080  8.216976  2.479923
  N    -0.280065  3.276307  0.533678
  N     0.347091  7.864819  1.332011
  N    -0.831752  3.608801  4.417419
  N    -0.212017  7.989462  5.194632
  S    -1.620346  3.190974  3.011231
  S    -1.066565  7.952027  3.762646
  S     1.320279  3.662582  0.139163
  S     1.909315  8.098113  0.896585
  S     0.762359  4.186245  4.264169
  S     1.497026  8.098198  5.016791
