16  
    
  C    -2.912184  2.258949  1.856629
  C    -2.852169  5.954699  2.043768
  C    -4.054877  1.669949  1.138667
  C    -4.072622  5.452965  1.442941
  N    -1.936479  2.655859  1.059616
  N    -1.852491  6.073404  1.179103
  N    -3.874973  1.631494 -0.179105
  N    -4.036230  5.266289  0.124669
  N    -4.786783  1.766017  3.588885
  N    -4.557095  5.792543  3.919410
  S    -5.468498  1.423051  2.128569
  S    -5.342535  5.200262  2.614190
  S    -2.362465  2.287390 -0.528798
  S    -2.516260  5.616189 -0.313464
  S    -3.227701  2.325519  3.621249
  S    -2.935179  6.148067  3.708203
