16  
    
  C    -0.737912  3.067478  2.669750
  C    -1.262076  6.490019  2.543215
  C    -1.975808  2.632158  2.043851
  C    -2.376184  5.965057  1.846464
  N     0.304725  3.260710  1.873279
  N    -0.312763  6.975277  1.756672
  N    -1.779406  2.264657  0.795349
  N    -2.252273  5.922636  0.519955
  N    -2.534256  3.058656  4.595079
  N    -3.160640  6.056499  4.340054
  S    -3.310295  2.722047  3.136720
  S    -3.777612  5.568761  2.905623
  S    -0.198145  2.638307  0.398599
  S    -0.735359  6.493314  0.190655
  S    -0.855519  3.322758  4.381408
  S    -1.615489  6.585771  4.332377
