16  
    
  C    -1.742510  2.344045  1.990326
  C    -1.731582  6.233420  2.113313
  C    -2.910667  2.011359  1.274393
  C    -2.940611  5.804006  1.417132
  N    -0.679133  2.518739  1.220746
  N    -0.662639  6.238467  1.309985
  N    -2.790558  1.823888 -0.030808
  N    -2.786085  5.555272  0.081183
  N    -3.586204  1.988266  3.745918
  N    -3.602211  6.114440  3.944677
  S    -4.399531  1.953821  2.321976
  S    -4.358874  5.651119  2.510509
  S    -1.192980  2.110727 -0.359980
  S    -1.232658  5.964606 -0.219336
  S    -1.994214  2.371735  3.674408
  S    -1.991452  6.531314  3.862103
