16  
    
  C     2.013889  5.014245  3.207942
  C     2.008971  8.530777  3.331460
  C     0.916942  4.432545  2.394093
  C     0.803620  8.240425  2.629222
  N     3.096501  5.166648  2.446063
  N     3.081873  8.704292  2.579079
  N     1.049293  4.527292  1.057839
  N     0.910045  8.332681  1.303389
  N     0.224056  4.472837  4.826950
  N     0.291960  8.367798  5.152531
  S    -0.535845  4.203153  3.370701
  S    -0.501247  7.901872  3.791707
  S     2.641611  4.950993  0.850522
  S     2.543810  8.692000  0.992165
  S     1.691926  5.139984  4.954235
  S     1.882216  8.825307  4.963942
