16  
    
  C     1.862318  5.102538  3.147094
  C     2.249294  8.655759  3.262761
  C     0.803001  4.536862  2.333886
  C     1.064619  8.155338  2.616559
  N     2.929321  5.287290  2.433539
  N     3.174415  9.003627  2.348678
  N     1.121587  4.343602  1.061020
  N     1.116929  8.057831  1.277657
  N    -0.014677  4.816331  4.782924
  N     0.428442  8.066244  5.043839
  S    -0.545536  4.107297  3.401505
  S    -0.307721  7.765376  3.582028
  S     2.709394  4.856437  0.859991
  S     2.619974  8.488042  0.875950
  S     1.604888  5.293859  4.854732
  S     1.996201  8.511598  5.030791
