16  
    
  C     1.655952  4.462528  3.402727
  C     1.394373  7.932487  3.090475
  C     0.297178  4.165288  2.908434
  C     0.200903  7.530115  2.416767
  N     2.618686  4.323506  2.503152
  N     2.421463  8.253366  2.313692
  N     0.289088  4.007954  1.577940
  N     0.336371  7.488792  1.083469
  N    -0.068968  4.683114  5.434162
  N    -0.408351  7.729691  4.890267
  S    -1.043411  4.203180  4.102687
  S    -1.173650  7.250504  3.490411
  S     1.807188  4.074523  1.082152
  S     1.863912  7.943850  0.754652
  S     1.569933  4.870037  5.121771
  S     1.207893  8.222546  4.750790
