16  
    
  C    -5.389715  1.082310  1.566645
  C    -5.177225  4.506864  1.542353
  C    -6.640685  0.829727  0.896277
  C    -6.460496  4.193638  1.070567
  N    -4.398214  1.113440  0.668669
  N    -4.265020  4.618814  0.557321
  N    -6.545103  0.647573 -0.446135
  N    -6.515681  3.966356 -0.241190
  N    -7.162033  1.086278  3.474849
  N    -6.829938  4.633905  3.590804
  S    -7.962803  0.937914  1.990183
  S    -7.737533  4.221128  2.240473
  S    -4.994545  0.866169 -0.836289
  S    -4.986826  4.228059 -0.881620
  S    -5.470237  1.369430  3.285136
  S    -5.263509  4.972210  3.214657
