16  
    
  C     2.053218  4.506918  2.915444
  C     2.065600  8.058538  3.186867
  C     0.865163  3.896959  2.386733
  C     0.896508  7.589445  2.509078
  N     3.166902  4.536179  2.190952
  N     3.156675  8.064643  2.426886
  N     1.082528  3.649422  1.105233
  N     1.128822  7.300571  1.246495
  N     0.311398  4.456804  4.852255
  N     0.034010  8.164389  4.801293
  S    -0.528866  3.943402  3.517009
  S    -0.525605  7.448151  3.410934
  S     2.607886  4.006719  0.724566
  S     2.646275  7.639562  0.861236
  S     1.903243  4.778428  4.700411
  S     1.694836  8.338625  4.896136
