16  
    
  C     0.120621  3.557898  2.302779
  C     0.163238  7.267441  2.918947
  C    -1.031857  3.005851  1.705590
  C    -1.010305  6.787661  2.244536
  N     1.215199  3.648746  1.517563
  N     1.160474  7.446209  2.104095
  N    -0.958788  2.950327  0.370816
  N    -0.909114  6.633134  0.955592
  N    -1.497788  2.844796  4.221962
  N    -1.732641  7.187866  4.606553
  S    -2.384439  2.812035  2.809292
  S    -2.346463  6.494755  3.196523
  S     0.587013  3.499333 -0.038566
  S     0.664899  7.005974  0.567218
  S     0.100661  3.404958  4.036802
  S    -0.109142  7.690218  4.555398
