16  
    
  C     0.111929  3.310435  2.482457
  C    -0.023272  7.188497  2.713854
  C    -1.169378  2.986677  1.752169
  C    -1.200873  6.693019  2.020729
  N     1.155354  3.545862  1.697065
  N     1.032988  7.465753  1.961594
  N    -0.920205  2.783847  0.467469
  N    -1.095197  6.677316  0.666053
  N    -1.697410  2.972376  4.248563
  N    -1.723529  6.738864  4.569292
  S    -2.388695  2.330571  2.855048
  S    -2.572595  6.469824  3.109792
  S     0.599267  3.324063  0.141466
  S     0.482894  7.121302  0.430745
  S    -0.175138  3.497169  4.155072
  S    -0.140820  7.242135  4.442038
