16  
    
  C     0.419258  3.789522  3.012813
  C     1.071455  7.487165  2.654938
  C    -0.503830  3.065453  2.169099
  C    -0.132826  6.992282  1.972094
  N     1.560420  4.159702  2.452376
  N     2.019790  7.957468  1.854672
  N    -0.174648  2.997087  0.888880
  N    -0.023049  6.970152  0.654753
  N    -1.447030  3.094255  4.554098
  N    -0.715325  6.922504  4.511326
  S    -1.845634  2.526144  3.091052
  S    -1.372880  6.544124  3.076023
  S     1.314608  3.815562  0.810208
  S     1.416127  7.674516  0.259947
  S     0.102326  3.819756  4.741517
  S     0.821436  7.533826  4.435284
