16  
    
  C     0.823617  4.159807  2.429084
  C     1.527728  8.267580  3.238964
  C    -0.280217  3.411311  1.899201
  C     0.275842  8.036729  2.646632
  N     1.960520  4.266327  1.679857
  N     2.539324  8.413709  2.414334
  N    -0.170679  3.095262  0.607195
  N     0.325208  8.083062  1.328470
  N    -0.884685  3.797518  4.386653
  N    -0.272550  8.208929  5.140753
  S    -1.613373  3.123430  3.022179
  S    -1.046440  7.973618  3.693625
  S     1.344663  3.654714  0.182025
  S     1.876060  8.262142  0.830354
  S     0.721367  4.172492  4.139842
  S     1.411974  8.287353  4.964908
