16  
    
  C     0.101161  3.597931  2.661522
  C     0.333906  7.525379  2.685471
  C    -1.056060  2.988333  2.046877
  C    -0.912990  7.297654  2.019516
  N     1.108464  3.822441  1.832449
  N     1.314500  7.604362  1.798672
  N    -0.931143  2.767227  0.773503
  N    -0.847683  7.053261  0.718255
  N    -1.765905  3.352701  4.471374
  N    -1.476348  7.185763  4.556345
  S    -2.359011  2.515485  3.086508
  S    -2.278036  7.105450  3.071264
  S     0.625502  3.232690  0.332111
  S     0.783178  7.392463  0.245868
  S    -0.279348  4.001511  4.291231
  S     0.133180  7.454629  4.438310
