16  
    
  C     2.926095  5.498360  3.890874
  C     2.489121  8.657714  3.135440
  C     1.725072  4.901893  3.335573
  C     1.254329  8.129441  2.563603
  N     4.027493  5.310909  3.138725
  N     3.489712  8.779426  2.287711
  N     1.829505  4.595743  2.012339
  N     1.379601  7.816368  1.268366
  N     1.120427  5.827535  5.750911
  N     0.872383  8.301585  5.079121
  S     0.397957  4.955591  4.484457
  S    -0.048525  8.160921  3.725602
  S     3.422560  4.855259  1.639415
  S     2.948351  8.104844  0.887241
  S     2.811791  5.907512  5.604087
  S     2.407815  8.800442  4.915801
