16  
    
  C     2.941548  5.234371  3.651978
  C     2.880677  8.817839  3.267746
  C     1.602173  5.136734  3.096686
  C     1.632013  8.416587  2.711163
  N     3.914996  4.871299  2.818119
  N     3.837181  8.850321  2.327299
  N     1.585890  4.764611  1.799896
  N     1.609008  7.989989  1.465004
  N     1.333000  5.509719  5.686354
  N     1.034324  8.841122  5.238459
  S     0.394138  5.378500  4.346557
  S     0.296038  8.492157  3.773572
  S     3.175763  4.688613  1.347844
  S     3.144148  8.101922  1.021939
  S     2.956768  5.444491  5.417198
  S     2.737367  9.067181  5.044249
