16  
    
  C    -0.760219  2.925728  2.521859
  C    -1.129825  6.484390  2.479746
  C    -2.003726  2.669332  1.831132
  C    -2.254131  5.905608  1.827902
  N     0.286020  2.972179  1.705036
  N    -0.074983  6.720252  1.698173
  N    -1.870002  2.393830  0.526132
  N    -2.127441  5.860193  0.525153
  N    -2.480984  2.774437  4.391985
  N    -2.945364  6.060084  4.357578
  S    -3.297257  2.412642  2.998476
  S    -3.660198  5.611805  2.894681
  S    -0.269913  2.756949  0.171481
  S    -0.495342  6.243458  0.142534
  S    -0.892471  3.275856  4.168318
  S    -1.366144  6.575108  4.231237
