16  
    
  C    -0.369437  3.157864  2.728018
  C    -0.327509  7.027373  2.452153
  C    -1.564988  2.672066  2.022427
  C    -1.458649  6.335899  1.945891
  N     0.604054  3.413391  1.909850
  N     0.687059  7.126529  1.628323
  N    -1.378520  2.481758  0.707891
  N    -1.374322  5.851658  0.722534
  N    -2.109345  2.943266  4.520758
  N    -2.032979  6.895094  4.374810
  S    -2.863027  2.397119  3.184236
  S    -2.692486  5.996935  3.145895
  S     0.213289  2.932082  0.398041
  S     0.100882  6.439920  0.212656
  S    -0.601041  3.627391  4.387087
  S    -0.484765  7.527369  4.094741
