16  
    
  C    -3.172903  1.962616  1.897072
  C    -3.225047  5.693529  2.095540
  C    -4.319676  1.489922  1.131018
  C    -4.425349  5.205472  1.460044
  N    -2.034917  2.040880  1.208619
  N    -2.243182  6.073910  1.264748
  N    -4.097149  1.352934 -0.193849
  N    -4.304610  5.067312  0.138985
  N    -5.184673  1.770284  3.595015
  N    -4.829277  5.304007  4.006553
  S    -5.721369  1.152545  2.135065
  S    -5.634026  4.873580  2.609021
  S    -2.478728  1.562637 -0.365302
  S    -2.797723  5.649536 -0.223384
  S    -3.539348  2.020260  3.559653
  S    -3.183915  5.813502  3.835178
