16  
    
  C    -5.501816  1.117373  1.326291
  C    -5.262439  5.156965  1.388969
  C    -6.641996  0.608865  0.633435
  C    -6.355752  4.439388  0.721687
  N    -4.477596  1.407746  0.515817
  N    -4.289136  5.530132  0.580231
  N    -6.487607  0.450261 -0.664692
  N    -6.135178  4.189890 -0.569608
  N    -7.349741  0.663025  3.105634
  N    -6.899160  4.474407  3.259174
  S    -7.940063  0.012404  1.684982
  S    -7.480233  3.767494  1.858298
  S    -4.967672  0.990128 -0.992017
  S    -4.645262  4.886352 -0.925166
  S    -5.711127  1.109309  3.016678
  S    -5.421414  5.254712  3.146709
