16  
    
  C    -2.558560  2.326458  2.329531
  C    -2.721472  5.856415  2.038738
  C    -3.741588  1.832201  1.616306
  C    -3.904688  5.386358  1.302295
  N    -1.654360  2.828061  1.523171
  N    -1.657281  6.051605  1.285874
  N    -3.603007  1.808140  0.287173
  N    -3.737861  5.210111  0.011298
  N    -4.317180  1.989771  4.120508
  N    -4.495056  5.459527  3.901363
  S    -5.036909  1.542811  2.714238
  S    -5.193936  4.894916  2.516352
  S    -2.149316  2.499350 -0.058762
  S    -2.186075  5.738241 -0.296616
  S    -2.753590  2.448914  4.037199
  S    -2.872734  5.721240  3.774911
