16  
    
  C     1.946209  4.194514  3.379662
  C     1.672057  7.786696  3.047260
  C     0.665915  4.219413  2.669929
  C     0.430970  7.613735  2.391110
  N     2.965136  4.367051  2.515108
  N     2.695188  7.955329  2.236494
  N     0.741164  4.137267  1.295435
  N     0.501306  7.664172  1.063227
  N     0.195639  3.949375  5.216311
  N     0.059181  7.379802  4.922315
  S    -0.634632  3.726005  3.817848
  S    -0.792128  7.129800  3.539981
  S     2.310985  4.406629  1.013344
  S     2.086779  7.869274  0.684816
  S     1.798556  4.277343  5.127347
  S     1.678407  7.672813  4.757800
