16  
    
  C    -0.047006  3.635629  2.552024
  C     0.270511  7.466391  2.685059
  C    -1.226103  3.024907  1.901274
  C    -0.934065  7.058227  2.054138
  N     0.961613  3.796575  1.712761
  N     1.290601  7.698972  1.891526
  N    -0.973056  2.547893  0.703963
  N    -0.791445  6.928189  0.740698
  N    -1.744840  3.484818  4.449914
  N    -1.390613  7.236727  4.556555
  S    -2.477106  2.714558  3.066199
  S    -2.248076  6.910375  3.127296
  S     0.537286  3.199937  0.235169
  S     0.879083  7.241549  0.415354
  S    -0.233202  4.078425  4.194139
  S     0.203077  7.566390  4.387910
