16  
    
  C    -6.122153  0.940933  1.399473
  C    -6.125004  4.457730  1.887162
  C    -7.297102  0.314421  0.899380
  C    -7.319719  4.087713  1.054197
  N    -5.238583  1.334153  0.469821
  N    -5.086104  4.712672  1.099545
  N    -7.202209  0.120186 -0.415301
  N    -7.096635  3.996272 -0.257645
  N    -7.526339  0.179868  3.516083
  N    -8.072025  4.207637  3.496971
  S    -8.327510 -0.402674  2.128870
  S    -8.657368  3.615047  2.003996
  S    -5.820598  0.810454 -0.961577
  S    -5.523804  4.361099 -0.452073
  S    -6.066337  0.967921  3.171662
  S    -6.413245  4.407845  3.615501
