16  
    
  C    -3.390323  1.757876  1.603020
  C    -3.727098  5.574342  1.708508
  C    -4.640656  1.233064  1.010312
  C    -4.873386  5.104736  1.025114
  N    -2.306668  1.900389  0.817082
  N    -2.734452  5.755034  0.868339
  N    -4.419445  0.889491 -0.260695
  N    -4.777436  4.921113 -0.299497
  N    -5.104891  1.455669  3.559672
  N    -5.531032  5.197117  3.511619
  S    -5.859924  0.820524  2.164306
  S    -6.237075  4.832743  2.047644
  S    -2.843128  1.236657 -0.681794
  S    -3.242866  5.512989 -0.640853
  S    -3.555800  2.119458  3.300121
  S    -3.845190  5.611462  3.478275
