16  
    
  C    -3.356168  1.520749  2.050458
  C    -3.140735  5.420056  2.067292
  C    -4.672904  1.332266  1.483491
  C    -4.302960  4.937970  1.359914
  N    -2.337997  1.727344  1.215208
  N    -2.118236  5.564946  1.249486
  N    -4.643785  1.136604  0.165575
  N    -4.214384  4.777059  0.056776
  N    -5.031070  1.636719  3.994761
  N    -4.888216  5.088959  3.942574
  S    -5.902797  1.120120  2.662117
  S    -5.701136  4.872971  2.451410
  S    -3.100684  1.430404 -0.286013
  S    -2.576303  5.153280 -0.273890
  S    -3.356822  1.748469  3.783042
  S    -3.341207  5.766360  3.835110
