16  
    
  C    -1.478634  3.293865  1.968950
  C    -1.022029  6.977497  2.443751
  C    -2.569244  2.586137  1.384255
  C    -2.290627  6.784593  1.804349
  N    -0.554395  3.775979  1.143943
  N     0.046485  7.048980  1.619199
  N    -2.314923  2.259638  0.146134
  N    -2.279233  6.800411  0.454221
  N    -3.153649  2.738988  3.870587
  N    -2.655185  6.646141  4.470844
  S    -3.845654  2.148144  2.495199
  S    -3.562681  6.639513  3.062665
  S    -0.932729  3.051693 -0.312258
  S    -0.661494  6.768208  0.120993
  S    -1.676055  3.445511  3.715686
  S    -1.058147  7.094682  4.169157
