16  
    
  C    -0.867259  3.057290  2.440128
  C    -0.682491  6.572349  2.449241
  C    -2.153099  2.715564  1.830081
  C    -1.877134  6.208139  1.726385
  N     0.148674  3.179868  1.593440
  N     0.363942  6.768046  1.625227
  N    -2.048434  2.654511  0.520281
  N    -1.747548  5.895115  0.454930
  N    -2.611913  2.946265  4.417659
  N    -2.536881  6.320626  4.155431
  S    -3.407033  2.660702  2.970933
  S    -3.263567  6.007423  2.706134
  S    -0.460749  2.821369  0.102302
  S    -0.141691  6.170158  0.149311
  S    -0.982848  3.382063  4.171008
  S    -0.927420  6.639988  4.159777
