16  
    
  C     3.000883  5.396700  3.939079
  C     2.374983  8.581772  3.218622
  C     1.745479  4.993376  3.368828
  C     1.203309  8.077371  2.577170
  N     3.971898  5.527483  2.993229
  N     3.428555  8.753137  2.452775
  N     1.876295  4.474675  2.146071
  N     1.429069  7.712602  1.311955
  N     1.145910  5.613289  5.709724
  N     0.680897  8.277252  5.137439
  S     0.408792  4.836985  4.460366
  S    -0.183070  8.018755  3.719351
  S     3.412189  4.767988  1.625251
  S     3.038445  8.199383  0.991279
  S     2.752321  5.831790  5.642506
  S     2.310854  8.800907  4.891750
