16  
    
  C     2.066208  4.478672  3.247705
  C     1.525616  7.977194  3.052456
  C     0.805468  4.024361  2.675779
  C     0.384005  7.382464  2.394306
  N     3.072169  4.742762  2.418407
  N     2.568345  8.228531  2.265250
  N     0.902236  3.922399  1.377458
  N     0.613204  7.320301  1.083324
  N     0.271623  4.391273  5.169093
  N    -0.311381  7.625326  4.792070
  S    -0.546545  3.811857  3.842168
  S    -0.936540  6.999571  3.418893
  S     2.437963  4.227651  0.912989
  S     2.090802  7.908883  0.675683
  S     1.807450  4.941854  4.980928
  S     1.238861  8.195879  4.725889
