16  
    
  C     2.957784  5.211920  3.638996
  C     2.864446  8.880827  3.303265
  C     1.632291  5.011995  3.110351
  C     1.630122  8.443525  2.736796
  N     3.908894  4.825331  2.770140
  N     3.852608  8.849409  2.382968
  N     1.570506  4.821550  1.776196
  N     1.623664  7.957478  1.458408
  N     1.289009  5.538164  5.705735
  N     1.076802  8.809763  5.225802
  S     0.405606  5.360800  4.310551
  S     0.304566  8.513839  3.813221
  S     3.178954  4.712288  1.318846
  S     3.231136  8.114346  1.059576
  S     2.935751  5.417796  5.416139
  S     2.724851  9.039833  5.031752
