16  
    
  C    -2.685760  2.526976  2.343509
  C    -2.611430  5.839389  1.999045
  C    -3.809138  1.931442  1.735734
  C    -3.871256  5.398871  1.297048
  N    -1.747641  3.032463  1.549996
  N    -1.589018  6.180099  1.230418
  N    -3.661688  1.782197  0.422724
  N    -3.752397  5.530928  0.012865
  N    -4.364948  2.026230  4.173843
  N    -4.514098  5.477378  3.756973
  S    -4.991186  1.382807  2.812714
  S    -5.238411  4.991840  2.314872
  S    -2.266171  2.540031 -0.003229
  S    -2.182279  5.941137 -0.323306
  S    -2.845071  2.659544  4.101608
  S    -2.939567  5.987261  3.727992
