16  
    
  C    -1.884554  2.411595  2.582779
  C    -1.746931  5.981022  2.291340
  C    -3.075774  2.053177  1.896766
  C    -2.975757  5.581997  1.684642
  N    -0.831340  2.721902  1.825113
  N    -0.720407  6.170053  1.445492
  N    -2.867089  1.864562  0.602498
  N    -2.944916  5.475075  0.351808
  N    -3.729756  2.091620  4.385275
  N    -3.452142  5.673269  4.237177
  S    -4.439379  1.639486  2.941588
  S    -4.356877  5.475735  2.860155
  S    -1.295856  2.231006  0.305837
  S    -1.419288  6.022764 -0.076172
  S    -2.129216  2.499050  4.320516
  S    -1.795763  5.919025  4.057851
