16  
    
  C    -3.125833  1.906597  1.785668
  C    -3.158662  5.869667  2.052388
  C    -4.243116  1.347606  1.019047
  C    -4.412155  5.464872  1.460887
  N    -2.148747  2.334917  1.003099
  N    -2.166839  6.021452  1.161507
  N    -3.981246  1.176045 -0.269042
  N    -4.382312  5.404598  0.148994
  N    -5.044355  1.568993  3.447802
  N    -4.662247  5.377389  3.983845
  S    -5.685190  1.084201  2.006788
  S    -5.616182  5.224775  2.650528
  S    -2.447775  1.868421 -0.544280
  S    -2.883959  5.781715 -0.327551
  S    -3.518034  2.202544  3.409967
  S    -3.104262  5.898224  3.742146
