16  
    
  C    -5.500152  0.988912  1.355437
  C    -5.169271  5.043775  1.271222
  C    -6.679689  0.387463  0.797826
  C    -6.311079  4.257474  0.707805
  N    -4.415780  1.182504  0.579264
  N    -4.269912  5.372774  0.321161
  N    -6.612069  0.212401 -0.542319
  N    -6.301303  4.064058 -0.644127
  N    -7.272968  0.601173  3.231086
  N    -6.653870  4.370556  3.284068
  S    -8.001866  0.187384  1.862786
  S    -7.459506  3.884842  1.927258
  S    -5.081209  0.755043 -0.923184
  S    -4.890613  4.771874 -1.123207
  S    -5.708467  1.104083  3.094417
  S    -5.212336  5.182212  3.075030
