16  
    
  C    -2.579502  2.286393  2.284555
  C    -2.723428  5.800370  2.046681
  C    -3.733639  1.905363  1.585702
  C    -3.917035  5.260779  1.410298
  N    -1.633131  2.761404  1.474489
  N    -1.637652  6.062156  1.286222
  N    -3.625772  1.808756  0.258031
  N    -3.703417  5.222165  0.065425
  N    -4.264587  1.940804  4.085638
  N    -4.475189  5.384283  3.927023
  S    -5.047157  1.603260  2.683589
  S    -5.238033  4.903053  2.545848
  S    -2.089520  2.418990 -0.043050
  S    -2.184597  5.704476 -0.312001
  S    -2.706257  2.422333  4.005190
  S    -2.836258  5.711848  3.762082
