16  
    
  C     3.507231  5.390388  3.599177
  C     3.556769  9.068564  3.498815
  C     2.261668  4.965469  2.957552
  C     2.431037  8.486575  2.793245
  N     4.480046  5.495970  2.708326
  N     4.471448  9.443645  2.672791
  N     2.279663  4.861275  1.619838
  N     2.596752  8.405632  1.459670
  N     1.764436  4.898129  5.446955
  N     1.823755  8.698945  5.418598
  S     0.944102  4.647444  4.013400
  S     1.125825  8.105063  4.028896
  S     3.834352  5.241204  1.219730
  S     4.055393  9.093539  1.139195
  S     3.326802  5.373532  5.306708
  S     3.331603  9.387100  5.211900
