16  
    
  C    -2.411270  1.992069  2.039216
  C    -2.561261  5.725443  2.074027
  C    -3.719872  1.756051  1.443260
  C    -3.788966  5.435165  1.373794
  N    -1.370074  1.837463  1.204152
  N    -1.506605  5.748249  1.312240
  N    -3.651331  1.675445  0.096358
  N    -3.692902  5.125167  0.077943
  N    -4.097104  2.270883  4.035714
  N    -4.385309  5.451153  3.910418
  S    -4.952437  2.117150  2.629852
  S    -5.133511  5.096810  2.485885
  S    -2.066746  1.730781 -0.338164
  S    -2.098196  5.451957 -0.247160
  S    -2.427994  2.374131  3.720526
  S    -2.718141  5.838731  3.792261
