16  
    
  C     0.634263  3.908023  2.961891
  C     0.659203  7.459505  2.752269
  C    -0.554563  3.422451  2.363735
  C    -0.509201  6.878620  2.207134
  N     1.663249  3.993219  2.140757
  N     1.635018  7.741327  1.925058
  N    -0.380858  2.831639  1.188044
  N    -0.417918  6.629456  0.909790
  N    -1.140391  3.964819  4.814118
  N    -1.030100  7.322650  4.711390
  S    -1.823065  3.224238  3.474927
  S    -1.809537  6.730793  3.310457
  S     1.152002  3.373223  0.677047
  S     1.154028  7.190344  0.468756
  S     0.431514  4.396088  4.668346
  S     0.551654  7.835253  4.420326
