16  
    
  C    -4.135547  1.604464  1.862222
  C    -3.916787  5.172895  1.880658
  C    -5.354020  1.027612  1.324738
  C    -5.035965  4.496875  1.378404
  N    -3.223846  1.694279  0.921701
  N    -2.856885  5.280714  1.065463
  N    -5.292649  0.595302  0.075843
  N    -4.920595  4.081635  0.121916
  N    -5.908081  1.759168  3.856505
  N    -5.764732  5.353311  3.762353
  S    -6.652323  0.953511  2.582571
  S    -6.484436  4.683688  2.478985
  S    -3.806158  1.053548 -0.481555
  S    -3.419284  4.627669 -0.439501
  S    -4.242758  1.910685  3.643317
  S    -4.153963  5.702587  3.588357
