16  
    
  C     2.846522  5.057917  3.782296
  C     2.211132  8.627223  3.402332
  C     1.599179  4.620891  3.241552
  C     1.196864  7.933886  2.664517
  N     3.741650  5.235022  2.816968
  N     3.322189  8.877198  2.730604
  N     1.613536  4.244916  1.971995
  N     1.568035  7.652428  1.386544
  N     1.147118  4.917576  5.714281
  N     0.340883  8.370763  5.194693
  S     0.363290  4.409941  4.375617
  S    -0.147450  7.521273  3.775371
  S     3.123678  4.593281  1.452044
  S     3.059450  8.396875  1.223028
  S     2.612928  5.671348  5.420632
  S     1.887853  8.998553  5.019631
