16  
    
  C    -3.189080  1.988550  1.881710
  C    -3.204670  5.747173  2.084326
  C    -4.274364  1.445892  1.128876
  C    -4.393188  5.248476  1.483557
  N    -2.028446  2.068934  1.179639
  N    -2.211950  6.041959  1.228690
  N    -4.088536  1.332160 -0.193038
  N    -4.325437  5.068129  0.167733
  N    -5.153889  1.751787  3.510652
  N    -4.835338  5.335136  4.003046
  S    -5.733815  1.141776  2.087052
  S    -5.635949  4.922036  2.635996
  S    -2.495089  1.579353 -0.365647
  S    -2.804216  5.706577 -0.235498
  S    -3.521354  2.048125  3.565952
  S    -3.205623  5.796858  3.814109
