16  
    
  C     0.087324  3.508416  2.399760
  C     0.299490  7.572669  2.793728
  C    -1.218983  3.303960  1.791314
  C    -0.831687  6.863349  2.192810
  N     1.052279  3.706495  1.475004
  N     1.353658  7.636657  1.988270
  N    -1.154954  3.089124  0.465562
  N    -0.596549  6.484915  0.908599
  N    -1.682591  3.507430  4.287531
  N    -1.440905  7.280983  4.707568
  S    -2.516374  3.043576  2.936000
  S    -2.145316  6.600854  3.383013
  S     0.432689  3.377204  0.002241
  S     0.956034  7.067747  0.524215
  S    -0.062808  3.875195  4.026095
  S     0.062902  7.949632  4.497979
