16  
    
  C    -2.405823  2.176518  2.125866
  C    -2.562371  5.614641  2.051365
  C    -3.686000  1.881657  1.480898
  C    -3.853551  5.264545  1.477152
  N    -1.362059  2.125240  1.273172
  N    -1.553340  5.881819  1.219012
  N    -3.620442  1.844050  0.139525
  N    -3.761510  5.143439  0.150142
  N    -4.145958  2.143850  4.020844
  N    -4.411460  5.403685  3.990045
  S    -4.966682  1.959411  2.576607
  S    -5.198212  4.935440  2.611089
  S    -2.046211  1.892959 -0.259218
  S    -2.194501  5.571110 -0.296985
  S    -2.460907  2.337460  3.855504
  S    -2.748875  5.713572  3.825008
