16  
    
  C    -1.530201  2.884920  2.004697
  C    -1.122260  6.868280  2.227860
  C    -2.631188  2.280278  1.346047
  C    -2.398002  6.406876  1.686052
  N    -0.459598  3.149492  1.232572
  N    -0.130105  7.006668  1.385311
  N    -2.383318  1.974415  0.067007
  N    -2.385758  6.279325  0.354342
  N    -3.296543  2.431067  3.798701
  N    -2.721004  6.989547  4.201559
  S    -3.874009  1.671377  2.447657
  S    -3.647519  6.486954  2.891883
  S    -0.914868  2.647651 -0.280595
  S    -0.825315  6.641773 -0.100051
  S    -1.915267  3.320354  3.651547
  S    -1.053819  7.139600  3.980796
