16  
    
  C    -2.906732  2.257306  1.856791
  C    -2.844833  5.962490  2.041648
  C    -4.064892  1.685944  1.133794
  C    -4.065203  5.455381  1.439042
  N    -1.931961  2.663249  1.064485
  N    -1.837948  6.066449  1.179225
  N    -3.870547  1.637307 -0.177308
  N    -4.031024  5.261648  0.133805
  N    -4.783489  1.770865  3.587126
  N    -4.550833  5.793590  3.916085
  S    -5.465987  1.426013  2.130223
  S    -5.343641  5.198059  2.610711
  S    -2.361234  2.283040 -0.525250
  S    -2.513548  5.613135 -0.308820
  S    -3.223039  2.326465  3.627495
  S    -2.935945  6.149277  3.708242
