16  
    
  C    -3.526395  1.979933  1.589499
  C    -3.911316  5.280611  1.586856
  C    -4.686516  1.383277  1.003165
  C    -5.114547  4.698215  1.092763
  N    -2.549211  2.156856  0.741328
  N    -2.885469  5.443989  0.723223
  N    -4.615886  1.211139 -0.316663
  N    -5.109657  4.580318 -0.213082
  N    -5.213938  1.552786  3.610323
  N    -5.592248  5.030286  3.624691
  S    -5.905657  0.967432  2.209691
  S    -6.433511  4.452330  2.255885
  S    -3.105624  1.725785 -0.754671
  S    -3.575070  4.880664 -0.761932
  S    -3.665548  2.130675  3.336629
  S    -4.041815  5.574060  3.309805
