16  
    
  C     0.860375  3.936555  2.499591
  C     1.505854  8.104073  3.284519
  C    -0.333720  3.273613  1.861688
  C     0.218873  7.970468  2.628896
  N     1.894330  4.094800  1.689112
  N     2.555425  8.238438  2.470202
  N    -0.268502  3.268835  0.527616
  N     0.349054  7.862169  1.312622
  N    -0.808765  3.631463  4.407318
  N    -0.212755  8.010893  5.193621
  S    -1.618213  3.186798  3.008377
  S    -1.074584  7.956572  3.766069
  S     1.319082  3.655312  0.142304
  S     1.902653  8.115030  0.893432
  S     0.761662  4.190382  4.265536
  S     1.491127  8.107766  5.033953
