16  
    
  C     0.779913  3.708424  2.817746
  C     0.554863  7.594428  2.725521
  C    -0.542638  3.357211  2.272439
  C    -0.595986  6.945152  2.248218
  N     1.685012  4.046851  1.895817
  N     1.469542  7.803242  1.787684
  N    -0.509441  3.328339  0.971289
  N    -0.535827  6.599081  0.947839
  N    -1.015098  3.565520  4.746341
  N    -0.927865  7.281548  4.802968
  S    -1.872682  3.235254  3.423186
  S    -1.785919  6.636701  3.515525
  S     0.996309  3.682338  0.449149
  S     0.971220  7.175614  0.374477
  S     0.649647  3.865725  4.563859
  S     0.465389  8.110353  4.343841
