16  
    
  C     0.957207  4.008103  2.588177
  C     1.491512  7.831501  3.288493
  C    -0.249923  3.547915  1.831232
  C     0.178338  7.787675  2.624667
  N     2.019506  4.208318  1.836019
  N     2.541832  7.889898  2.467117
  N    -0.032533  3.293512  0.548128
  N     0.281236  7.742212  1.292711
  N    -0.975845  3.660491  4.293847
  N    -0.249977  7.884993  5.116187
  S    -1.630365  3.197873  2.899142
  S    -1.107082  7.741228  3.754268
  S     1.546792  3.773986  0.239382
  S     1.861050  7.806059  0.921478
  S     0.643995  4.060028  4.268228
  S     1.396950  8.027853  4.963231
