16  
    
  C     0.550024  3.516832  2.787512
  C     0.780019  7.657135  2.670172
  C    -0.664496  3.103979  2.063865
  C    -0.469613  7.206696  2.028579
  N     1.588433  3.904843  2.026746
  N     1.714593  8.030797  1.801349
  N    -0.516891  3.206102  0.725546
  N    -0.355826  7.209595  0.709319
  N    -1.277884  3.269423  4.574524
  N    -0.796174  6.791911  4.516846
  S    -1.999061  2.787544  3.143749
  S    -1.634256  6.559016  3.075400
  S     1.089503  3.565627  0.473983
  S     1.073982  7.793299  0.240877
  S     0.297253  3.667427  4.478750
  S     0.657760  7.613253  4.425310
