16  
    
  C    -4.413663  1.314202  1.984773
  C    -4.589035  4.846205  1.704489
  C    -5.611483  0.818309  1.319074
  C    -5.656388  4.345490  0.955199
  N    -3.581431  1.787793  1.086134
  N    -3.551525  5.235394  1.008049
  N    -5.585047  0.693708  0.014908
  N    -5.479124  4.321505 -0.330559
  N    -5.945240  0.862952  3.806197
  N    -6.415241  4.063841  3.313245
  S    -6.770821  0.384269  2.497175
  S    -7.014523  3.785742  1.813926
  S    -4.137677  1.447774 -0.424574
  S    -4.004623  5.054904 -0.588333
  S    -4.407198  1.477877  3.669567
  S    -4.925973  4.793622  3.365288
