16  
    
  C    -5.271469  1.045145  1.402870
  C    -5.406385  4.619840  1.622377
  C    -6.464432  0.560614  0.807318
  C    -6.715265  4.286835  1.058920
  N    -4.234904  1.251432  0.570874
  N    -4.478614  4.753768  0.662650
  N    -6.417203  0.390063 -0.514653
  N    -6.728473  4.037580 -0.264329
  N    -7.114843  0.922215  3.313912
  N    -6.980173  4.246665  3.602558
  S    -7.885809  0.468932  1.870411
  S    -7.949352  4.263171  2.251372
  S    -4.909690  0.920709 -0.960435
  S    -5.210285  4.448269 -0.796011
  S    -5.499667  1.369597  3.057487
  S    -5.397334  4.870623  3.375765
