16  
    
  C     3.123647  4.910668  3.411861
  C     2.955584  9.029653  3.796445
  C     1.940786  4.674424  2.690469
  C     1.664845  8.573580  3.305525
  N     4.167596  5.142761  2.624648
  N     3.980370  8.988087  2.976712
  N     2.052486  4.602095  1.391953
  N     1.770098  8.167560  2.020514
  N     1.196998  5.019522  5.121122
  N     1.469108  9.105632  5.870859
  S     0.485052  4.674875  3.642973
  S     0.448465  8.762618  4.563396
  S     3.615802  4.872357  1.086342
  S     3.346305  8.540811  1.526057
  S     2.845035  5.270590  5.053840
  S     3.105074  9.308331  5.424555
