16  
    
  C    -3.437685  1.827794  1.685307
  C    -3.617872  5.589954  1.721698
  C    -4.571348  1.110905  1.084666
  C    -4.826572  5.175333  1.061509
  N    -2.399783  1.891726  0.874383
  N    -2.588253  5.950784  0.978206
  N    -4.420422  0.835239 -0.215612
  N    -4.668960  5.132515 -0.256285
  N    -5.126371  1.493622  3.498969
  N    -5.431515  5.130167  3.554266
  S    -5.819390  0.802498  2.188260
  S    -6.241755  4.893091  2.098693
  S    -2.877584  1.280043 -0.551591
  S    -3.149667  5.579235 -0.648587
  S    -3.617816  2.087294  3.336908
  S    -3.905127  5.635051  3.439855
