16  
    
  C     2.864125  5.290097  3.363645
  C     2.867232  8.936359  3.335475
  C     1.772946  4.545464  2.741197
  C     1.712345  8.365441  2.704101
  N     3.878748  5.566277  2.518647
  N     3.889863  9.171019  2.591123
  N     1.859783  4.561518  1.393137
  N     1.849980  8.329778  1.412979
  N     1.165523  4.871091  5.280013
  N     1.153268  8.266072  5.256842
  S     0.453787  4.293893  3.941382
  S     0.499579  7.751302  3.799431
  S     3.351124  5.125673  0.984304
  S     3.373602  8.930126  1.013321
  S     2.741094  5.432093  5.051767
  S     2.647052  9.090120  5.071839
