16  
    
  C    -5.548515  0.909982  1.482228
  C    -5.433355  4.888377  1.237212
  C    -6.736432  0.415794  0.841429
  C    -6.650505  4.266752  0.682868
  N    -4.501949  0.974603  0.656496
  N    -4.471676  5.126061  0.337614
  N    -6.644008  0.263174 -0.509948
  N    -6.603243  4.135441 -0.667603
  N    -7.340745  0.849234  3.240224
  N    -6.878527  4.320034  3.210581
  S    -8.100221  0.213481  1.933198
  S    -7.808183  3.938384  1.903857
  S    -5.064885  0.603112 -0.831719
  S    -5.093552  4.642650 -1.094585
  S    -5.731042  1.012201  3.179412
  S    -5.409216  5.032056  2.916478
