16  
    
  C     1.280815  4.509383  3.208658
  C     1.614857  7.954973  3.115670
  C    -0.045819  4.267069  2.681270
  C     0.340658  7.780167  2.416714
  N     2.193452  4.716156  2.249174
  N     2.667594  7.986323  2.270315
  N    -0.015144  3.962049  1.372893
  N     0.408318  7.609362  1.091424
  N    -0.212376  4.175734  5.217220
  N    -0.270992  8.141366  4.901503
  S    -1.277401  3.901223  3.959124
  S    -1.046282  8.217311  3.452322
  S     1.457965  4.399687  0.851015
  S     2.004507  7.698830  0.727871
  S     1.344947  4.659389  4.910111
  S     1.388259  8.185465  4.856127
