16  
    
  C    -0.397179  3.149687  2.681089
  C    -0.341645  7.011475  2.440824
  C    -1.589059  2.771458  2.037049
  C    -1.476313  6.218529  1.976177
  N     0.651149  3.374915  1.864076
  N     0.659028  7.106043  1.544438
  N    -1.382503  2.424247  0.766639
  N    -1.304834  5.902317  0.681920
  N    -2.058804  2.905988  4.585006
  N    -2.003022  6.875834  4.426606
  S    -2.864184  2.432564  3.183759
  S    -2.689311  5.988324  3.191087
  S     0.164272  2.960062  0.361769
  S     0.149446  6.473125  0.154906
  S    -0.558783  3.559751  4.369499
  S    -0.511371  7.511596  4.079615
