16  
    
  C    -0.903864  3.079933  2.464008
  C    -0.626690  6.646848  2.351790
  C    -2.242632  2.918057  1.816166
  C    -1.816542  6.181456  1.677192
  N     0.150296  3.016419  1.663383
  N     0.457941  6.695453  1.564656
  N    -2.111092  2.613359  0.546234
  N    -1.656137  6.042728  0.365717
  N    -2.733594  3.142852  4.297361
  N    -2.505874  6.428153  4.291425
  S    -3.532484  2.724254  2.910538
  S    -3.243641  6.083652  2.792838
  S    -0.504154  2.784997  0.134082
  S    -0.096245  6.309613 -0.008008
  S    -1.093381  3.399609  4.193534
  S    -0.864986  6.687849  4.131482
