16  
    
  C    -1.195524  3.266285  2.096986
  C    -1.112276  7.159429  2.633397
  C    -2.450860  2.767334  1.568842
  C    -2.347237  6.794641  1.978230
  N    -0.286747  3.681121  1.205439
  N    -0.078543  7.161110  1.771644
  N    -2.408002  2.564286  0.251659
  N    -2.196563  6.605896  0.644461
  N    -2.782850  2.912509  4.077181
  N    -2.815947  6.618675  4.532091
  S    -3.558869  2.281749  2.768238
  S    -3.665037  6.709447  3.114838
  S    -0.966828  3.266685 -0.272790
  S    -0.624620  6.975169  0.230397
  S    -1.295702  3.592088  3.851891
  S    -1.150330  6.948753  4.362830
