16  
    
  C     0.535219  3.896092  2.942362
  C     0.584607  7.559274  2.878903
  C    -0.712881  3.516361  2.355907
  C    -0.492491  7.103491  2.129162
  N     1.511204  3.822868  2.049352
  N     1.700319  7.614729  2.179147
  N    -0.732654  3.126735  1.111525
  N    -0.270703  6.944721  0.839516
  N    -1.099724  3.753995  4.971943
  N    -1.292619  7.238414  4.475706
  S    -1.958863  3.306297  3.565816
  S    -1.964548  6.904717  2.987795
  S     0.861018  3.401282  0.603763
  S     1.382944  7.232328  0.584539
  S     0.468269  4.102536  4.700078
  S     0.275374  7.714748  4.545429
