16  
    
  C    -1.766263  2.262233  1.984553
  C    -1.862840  6.155144  2.078649
  C    -3.039222  2.031860  1.268714
  C    -3.048075  5.690585  1.412729
  N    -0.689979  2.497102  1.205482
  N    -0.783835  6.277265  1.348272
  N    -2.789596  1.825257 -0.035283
  N    -2.850424  5.569590  0.093678
  N    -3.637720  1.961439  3.789614
  N    -3.611647  6.004471  4.008146
  S    -4.390737  1.931692  2.305174
  S    -4.318313  5.716504  2.572656
  S    -1.162157  2.095984 -0.323743
  S    -1.222348  5.917151 -0.259538
  S    -2.023276  2.394556  3.717263
  S    -2.003397  6.397130  3.831913
