16  
    
  C    -4.683785  1.064696  1.452716
  C    -4.794641  4.702715  1.698052
  C    -5.930183  0.963816  0.708829
  C    -6.034797  4.503524  1.018083
  N    -3.598079  1.144643  0.654456
  N    -3.731987  4.799346  0.875644
  N    -5.748208  0.744488 -0.598733
  N    -5.947956  4.371632 -0.310699
  N    -6.434967  0.744096  3.300418
  N    -6.607181  4.143293  3.557215
  S    -7.211538  0.678726  1.870382
  S    -7.404776  4.187167  2.108966
  S    -4.164275  0.918108 -0.874540
  S    -4.337797  4.544024 -0.664678
  S    -4.820954  0.924550  3.245452
  S    -5.037658  4.636095  3.404374
