16  
    
  C     3.126975  4.943281  3.410750
  C     2.963947  9.025864  3.811451
  C     1.946674  4.659153  2.692976
  C     1.685348  8.550858  3.294236
  N     4.173725  5.133268  2.614636
  N     3.975328  9.003545  2.980140
  N     2.047257  4.599692  1.396108
  N     1.753529  8.169237  2.019127
  N     1.191787  5.021836  5.108950
  N     1.455847  9.087658  5.878829
  S     0.481482  4.675576  3.630963
  S     0.445060  8.761490  4.554046
  S     3.615357  4.873397  1.084111
  S     3.348399  8.554608  1.524403
  S     2.841235  5.268738  5.059933
  S     3.099243  9.312724  5.434640
