16  
    
  C     0.570528  3.714116  2.943432
  C     0.592426  7.524603  2.837803
  C    -0.798833  3.506098  2.415463
  C    -0.572847  7.122298  2.036252
  N     1.540782  3.849461  2.041710
  N     1.757118  7.667614  2.190508
  N    -0.773689  3.423188  1.103536
  N    -0.243032  6.841578  0.765131
  N    -1.127867  3.642077  4.924815
  N    -1.391792  7.271523  4.535078
  S    -2.027005  3.288684  3.616728
  S    -2.038828  6.956202  3.009842
  S     0.805440  3.473622  0.557565
  S     1.330203  7.259073  0.651756
  S     0.510278  3.997580  4.659233
  S     0.271550  7.698340  4.552982
