16  
    
  C     2.926664  5.485069  3.892474
  C     2.500528  8.663835  3.140030
  C     1.723533  4.902263  3.334078
  C     1.263375  8.140784  2.562028
  N     4.022540  5.309681  3.135989
  N     3.493635  8.771539  2.279336
  N     1.826200  4.601495  2.010505
  N     1.376204  7.816248  1.268289
  N     1.126717  5.830585  5.746965
  N     0.872478  8.308838  5.075311
  S     0.398186  4.962441  4.484386
  S    -0.039355  8.163295  3.726558
  S     3.422306  4.857322  1.646020
  S     2.941334  8.104538  0.882358
  S     2.813730  5.909137  5.598566
  S     2.408674  8.801182  4.916095
