16  
    
  C     0.743165  3.969171  2.978195
  C     0.669871  7.568772  2.769018
  C    -0.476712  3.426686  2.373905
  C    -0.494044  6.826243  2.249685
  N     1.747185  4.026686  2.100276
  N     1.595072  7.779927  1.825618
  N    -0.356393  3.099323  1.109207
  N    -0.392969  6.577268  0.918216
  N    -1.168179  3.849396  4.795815
  N    -1.011982  7.383338  4.701415
  S    -1.843665  3.180867  3.472048
  S    -1.758668  6.712920  3.424628
  S     1.172348  3.369674  0.692325
  S     1.053808  7.128335  0.380181
  S     0.465166  4.393173  4.626636
  S     0.542176  7.851718  4.452464
