16  
    
  C     2.989602  5.274092  3.355602
  C     3.378640  9.133481  3.344164
  C     1.855661  4.623298  2.669335
  C     2.120752  8.683227  2.854542
  N     4.024296  5.508376  2.563123
  N     4.373576  9.123969  2.499288
  N     2.115143  4.387440  1.388018
  N     2.218997  8.380736  1.550353
  N     1.327359  4.688705  5.282800
  N     1.911436  8.988776  5.432060
  S     0.512714  4.297027  3.857855
  S     0.890270  8.593983  4.183877
  S     3.678182  4.892798  1.068756
  S     3.763095  8.648543  1.082722
  S     2.745658  5.543745  5.099272
  S     3.524545  9.240226  5.015368
