16  
    
  C    -5.367120  1.150837  1.299064
  C    -5.470784  4.791020  1.579296
  C    -6.559822  0.645133  0.659385
  C    -6.746888  4.495044  0.917237
  N    -4.332013  1.476911  0.501781
  N    -4.418130  4.951946  0.744726
  N    -6.428491  0.415581 -0.652500
  N    -6.653218  4.311591 -0.426416
  N    -7.164163  0.850207  3.190866
  N    -7.231846  4.600865  3.521756
  S    -7.816754  0.081635  1.770914
  S    -8.029609  4.151632  2.106389
  S    -4.874672  0.984170 -1.030634
  S    -5.055607  4.604807 -0.778355
  S    -5.516166  1.218362  3.032782
  S    -5.600593  4.862161  3.350927
