16  
    
  C    -2.642604  2.528213  2.217511
  C    -2.700458  6.404586  1.956622
  C    -3.767332  1.849663  1.660327
  C    -3.780505  5.804346  1.231278
  N    -1.684042  2.849174  1.346846
  N    -1.630088  6.653139  1.241845
  N    -3.691628  1.652601  0.368657
  N    -3.494781  5.511497  0.008980
  N    -4.375386  2.317099  4.128891
  N    -4.538552  5.974061  3.708768
  S    -5.172531  1.725021  2.772438
  S    -5.050115  5.382329  2.283271
  S    -2.261136  2.358013 -0.115700
  S    -1.923406  6.179011 -0.294991
  S    -2.831923  2.868868  3.919119
  S    -2.978769  6.494739  3.723121
