16  
    
  C     1.467336  4.286389  3.452548
  C     1.426662  7.984459  3.101690
  C     0.149940  4.193401  2.912471
  C     0.180663  7.777613  2.391749
  N     2.355768  4.485673  2.471072
  N     2.505296  7.978096  2.293633
  N     0.055357  3.972389  1.604549
  N     0.217869  7.673334  1.050855
  N    -0.045350  4.668599  5.411588
  N    -0.456421  7.889042  4.914276
  S    -1.005153  4.174616  4.174587
  S    -1.172966  7.517973  3.488174
  S     1.636977  4.214103  1.051763
  S     1.865444  7.831076  0.766339
  S     1.513878  4.807002  5.123156
  S     1.172429  8.179616  4.871473
