16  
    
  C    -3.020297  2.096445  1.794876
  C    -2.972022  5.925600  1.966784
  C    -4.130682  1.577079  1.036882
  C    -4.218574  5.418210  1.433032
  N    -2.052201  2.526157  1.035441
  N    -1.970377  6.086879  1.090180
  N    -3.961068  1.468478 -0.261315
  N    -4.171612  5.261177  0.152695
  N    -4.806498  1.636844  3.466997
  N    -4.592243  5.657291  3.979366
  S    -5.504386  1.176450  2.049027
  S    -5.501729  5.262875  2.689792
  S    -2.488612  2.224195 -0.526500
  S    -2.712612  5.762038 -0.415978
  S    -3.311205  2.323745  3.455263
  S    -2.973207  6.077077  3.701348
