16  
    
  C    -1.693773  2.417834  2.400665
  C    -1.744373  6.226398  2.433058
  C    -2.916416  2.115783  1.712627
  C    -2.859511  5.676547  1.767325
  N    -0.682049  2.789108  1.644063
  N    -0.695208  6.372247  1.633837
  N    -2.752817  1.913661  0.430281
  N    -2.697296  5.493508  0.492451
  N    -3.559931  2.335514  4.189235
  N    -3.502333  5.717374  4.172369
  S    -4.300196  2.206956  2.729144
  S    -4.255781  5.392890  2.746357
  S    -1.136028  2.342110  0.092278
  S    -1.186646  5.912929  0.138187
  S    -1.944806  2.760972  4.091755
  S    -1.922477  6.258288  4.114154
