16  
    
  C     2.014072  4.952700  3.127918
  C     2.064816  8.521373  3.331556
  C     0.831447  4.576322  2.386009
  C     0.792686  8.239401  2.683724
  N     3.109667  5.205819  2.433732
  N     3.117573  8.805484  2.542603
  N     1.052701  4.419584  1.076816
  N     0.863257  8.388715  1.347997
  N     0.187757  4.402356  4.935008
  N     0.230314  8.505768  5.204958
  S    -0.469916  4.208479  3.454622
  S    -0.497258  7.971806  3.755533
  S     2.654057  4.971854  0.846764
  S     2.481523  8.670308  1.016713
  S     1.769031  5.008730  4.890028
  S     1.834565  8.874274  5.028496
