16  
    
  C     0.701856  4.011544  2.923121
  C     0.683923  7.571166  2.696172
  C    -0.452618  3.351647  2.407884
  C    -0.473157  6.869768  2.197954
  N     1.787659  4.044942  2.140424
  N     1.633692  7.822685  1.794182
  N    -0.394395  3.270534  1.066743
  N    -0.418914  6.499501  0.915322
  N    -1.086039  3.815465  4.819335
  N    -0.993794  7.401885  4.717182
  S    -1.842897  3.166128  3.444815
  S    -1.760394  6.689785  3.464179
  S     1.193497  3.376670  0.665250
  S     0.982356  7.102130  0.368048
  S     0.469001  4.361028  4.617853
  S     0.546708  7.894881  4.501008
