16  
    
  C     2.068722  4.641618  2.992684
  C     2.320707  8.601925  3.116858
  C     0.846041  4.251293  2.335911
  C     1.133842  8.123324  2.478951
  N     3.065432  4.976359  2.195748
  N     3.375075  8.610214  2.286195
  N     0.919097  4.085624  1.033354
  N     1.184281  7.784978  1.186648
  N     0.334028  4.371666  4.865548
  N     0.443339  8.403828  4.892861
  S    -0.483361  3.953558  3.454980
  S    -0.203192  7.763127  3.528752
  S     2.511181  4.523367  0.671737
  S     2.778007  8.191034  0.781489
  S     1.859427  4.927983  4.619580
  S     2.031721  8.871281  4.860012
