16  
    
  C     1.824945  4.487155  3.366334
  C     1.436046  8.189051  2.990882
  C     0.522599  4.133631  2.808024
  C     0.375332  7.385881  2.388047
  N     2.799185  4.680382  2.449299
  N     2.369886  8.658023  2.131873
  N     0.658571  3.751945  1.570102
  N     0.558074  7.043650  1.122762
  N     0.043756  4.551330  5.232287
  N    -0.337151  7.556556  4.847612
  S    -0.816913  4.273344  3.907589
  S    -0.981116  6.974966  3.420938
  S     2.257453  4.020867  1.021638
  S     1.908748  7.933853  0.708903
  S     1.699542  4.855524  5.051954
  S     1.197046  8.212087  4.786101
