16  
    
  C    -0.364560  3.442577  2.503874
  C    -0.296776  6.898075  2.271850
  C    -1.661178  2.944718  1.976715
  C    -1.570199  6.593397  1.718148
  N     0.593902  3.460725  1.584763
  N     0.646248  7.181975  1.382362
  N    -1.613169  2.688321  0.690167
  N    -1.563074  6.490272  0.413777
  N    -1.980272  3.156586  4.464542
  N    -1.853876  6.688246  4.286297
  S    -2.908534  2.983812  3.135329
  S    -2.795625  6.444431  2.937753
  S    -0.091909  3.120989  0.123745
  S     0.028705  6.841010 -0.065826
  S    -0.373677  3.378917  4.287292
  S    -0.281204  7.137819  3.964561
