16  
    
  C     2.863309  5.225234  3.784820
  C     2.386544  8.517735  3.451245
  C     1.689163  4.548374  3.281021
  C     1.299091  7.942288  2.717994
  N     3.867062  5.365374  2.939838
  N     3.457489  8.779756  2.658426
  N     1.829217  4.137253  2.022751
  N     1.444635  7.857854  1.384989
  N     1.229650  5.029507  5.785749
  N     0.381866  8.498687  4.961447
  S     0.289815  4.683964  4.501683
  S    -0.140792  7.547139  3.708263
  S     3.301405  4.715452  1.486512
  S     2.980939  8.317405  1.128643
  S     2.709339  5.709917  5.499296
  S     1.925734  8.940351  5.091481
