16  
    
  C    -2.401402  2.068648  2.070157
  C    -2.597161  5.614332  2.104759
  C    -3.669847  1.889174  1.486272
  C    -3.859338  5.261874  1.442007
  N    -1.355333  2.059641  1.254738
  N    -1.551922  5.908557  1.263044
  N    -3.615753  1.796441  0.172967
  N    -3.746907  5.204749  0.101699
  N    -4.114813  2.201421  3.975241
  N    -4.396460  5.445321  3.951422
  S    -4.985095  1.994909  2.588185
  S    -5.183486  4.936076  2.616754
  S    -2.045093  1.875606 -0.267846
  S    -2.185118  5.522699 -0.290828
  S    -2.441159  2.343983  3.824524
  S    -2.730568  5.720015  3.810656
