16  
    
  C    -4.665464  0.875231  1.406493
  C    -4.850752  4.580598  1.816255
  C    -5.933221  0.630129  0.756353
  C    -6.059417  4.361233  1.092895
  N    -3.610420  1.019906  0.641521
  N    -3.804952  4.714769  1.056876
  N    -5.762619  0.752918 -0.560974
  N    -5.904905  4.277158 -0.223897
  N    -6.507221  0.806930  3.292345
  N    -6.538422  4.400293  3.635625
  S    -7.355197  0.694046  1.777682
  S    -7.410131  4.203835  2.180081
  S    -4.165245  0.974244 -0.911907
  S    -4.245058  4.551116 -0.514757
  S    -4.838334  1.044668  3.098713
  S    -4.903677  4.748357  3.514365
