16  
    
  C    -1.146978  3.039177  2.243426
  C    -1.015524  6.785455  2.500920
  C    -2.483369  2.801496  1.706545
  C    -2.316698  6.465781  1.936654
  N    -0.226854  3.174441  1.284323
  N    -0.020167  7.071599  1.658566
  N    -2.499618  2.705709  0.368327
  N    -2.330204  6.663751  0.614634
  N    -2.782188  3.023449  4.206001
  N    -2.709297  6.868255  4.396552
  S    -3.718964  2.696721  2.894272
  S    -3.620169  6.549403  3.013287
  S    -0.974374  2.987005 -0.174756
  S    -0.753868  6.954970  0.151670
  S    -1.179183  3.327559  3.981206
  S    -1.068392  7.085938  4.186593
