16  
    
  C     1.640819  4.576301  3.394108
  C     1.327905  8.117744  3.054925
  C     0.377380  4.140873  2.790880
  C     0.294425  7.393154  2.401599
  N     2.690065  4.465918  2.575392
  N     2.290458  8.456996  2.226826
  N     0.426721  3.846027  1.495962
  N     0.474587  7.218977  1.108576
  N     0.001913  4.598433  5.366035
  N    -0.364182  7.602598  4.890868
  S    -0.833852  4.285957  3.968761
  S    -1.026690  7.100190  3.473777
  S     2.039376  4.004067  1.098331
  S     1.914596  7.958417  0.672737
  S     1.638955  4.862055  5.099206
  S     1.179833  8.201117  4.771335
