16  
    
  C     0.277392  3.563066  2.874474
  C     0.392566  7.557469  2.793733
  C    -0.908767  3.307165  2.134404
  C    -0.928042  7.481702  2.241818
  N     1.292475  3.963922  2.109449
  N     1.336102  7.658811  1.871464
  N    -0.732867  3.111586  0.810585
  N    -1.015341  7.563049  0.927315
  N    -1.540770  3.066720  4.668719
  N    -1.307990  7.501034  4.744848
  S    -2.214558  2.797758  3.184918
  S    -2.217986  7.411564  3.376239
  S     0.799077  3.681587  0.562676
  S     0.568960  7.545461  0.350967
  S     0.120640  3.478139  4.645883
  S     0.366444  7.586847  4.545287
