16  
    
  C    -3.440665  1.746663  1.742812
  C    -3.649672  5.675518  1.741706
  C    -4.560327  1.059347  1.094413
  C    -4.841521  5.218738  1.039953
  N    -2.436065  1.979778  0.917458
  N    -2.636462  5.938390  0.937469
  N    -4.384106  0.720084 -0.178993
  N    -4.702207  5.237860 -0.289428
  N    -5.260771  1.517950  3.637719
  N    -5.453253  5.064839  3.593903
  S    -5.873202  0.777405  2.241740
  S    -6.153843  4.946143  2.112379
  S    -2.871545  1.336007 -0.609952
  S    -3.091483  5.643759 -0.577894
  S    -3.672755  2.119265  3.467067
  S    -3.867615  5.673846  3.469093
