16  
    
  C    -5.361851  1.179826  1.691378
  C    -5.133882  4.739722  1.406449
  C    -6.660446  0.844328  1.070263
  C    -6.364368  4.341886  0.772548
  N    -4.289291  1.058142  0.904601
  N    -4.093952  4.733047  0.587384
  N    -6.612191  0.712160 -0.251427
  N    -6.328351  4.059378 -0.530750
  N    -7.203708  0.991595  3.529165
  N    -6.998332  5.161832  3.098296
  S    -8.025213  0.679892  2.128453
  S    -7.762425  4.489975  1.786861
  S    -4.940554  0.759600 -0.631513
  S    -4.759054  4.350387 -0.908171
  S    -5.541217  1.293938  3.389659
  S    -5.296904  5.156228  3.113654
