16  
    
  C    -3.238085  1.889713  2.008304
  C    -3.135741  5.489761  2.126935
  C    -4.445748  1.357855  1.338162
  C    -4.252483  4.789700  1.447234
  N    -2.194660  2.098096  1.186335
  N    -2.188172  5.860323  1.298191
  N    -4.351227  1.320683  0.016963
  N    -4.130831  4.692217  0.133205
  N    -5.015101  1.578961  3.883747
  N    -4.831973  5.097741  3.948514
  S    -5.774234  1.201444  2.476737
  S    -5.586448  4.514405  2.568818
  S    -2.823537  1.795475 -0.384735
  S    -2.608486  5.304372 -0.185776
  S    -3.412059  1.879953  3.803784
  S    -3.339559  5.879339  3.799894
