16  
    
  C    -2.074085  2.464435  1.984176
  C    -2.081341  5.731897  2.216843
  C    -3.310473  1.948179  1.403535
  C    -3.402638  5.574957  1.530290
  N    -1.072980  2.517665  1.128388
  N    -1.051704  5.767634  1.370194
  N    -3.283413  1.766642  0.086464
  N    -3.316804  5.461041  0.208552
  N    -3.824830  2.357811  3.892342
  N    -3.862910  5.847496  4.066123
  S    -4.669858  1.915699  2.519134
  S    -4.715352  5.423374  2.674647
  S    -1.735711  2.074428 -0.371706
  S    -1.718201  5.761909 -0.111754
  S    -2.192567  2.540459  3.660420
  S    -2.209958  6.137765  3.879163
