16  
    
  C    -1.783869  2.403616  2.351478
  C    -1.850100  6.242924  2.300538
  C    -2.942689  1.847034  1.708578
  C    -3.056285  5.678751  1.747526
  N    -0.813179  2.652588  1.497799
  N    -0.889251  6.399212  1.417598
  N    -2.888877  1.756786  0.383964
  N    -2.991104  5.437946  0.438945
  N    -3.600514  2.180453  4.154214
  N    -3.467543  5.891594  4.253131
  S    -4.410028  1.734534  2.769858
  S    -4.257617  5.291896  2.898737
  S    -1.321227  2.198495 -0.001160
  S    -1.459352  5.911013 -0.110285
  S    -2.001862  2.590046  4.051255
  S    -1.964821  6.642162  4.024619
