16  
    
  C     2.982050  5.466148  3.925068
  C     2.387980  8.596327  3.217110
  C     1.741146  5.011418  3.337500
  C     1.199891  8.061990  2.575481
  N     4.000755  5.425654  3.086443
  N     3.415047  8.807052  2.413064
  N     1.870880  4.511615  2.124276
  N     1.402121  7.768559  1.291098
  N     1.119326  5.725470  5.742092
  N     0.772224  8.243446  5.149860
  S     0.395467  4.866589  4.476997
  S    -0.165495  8.092456  3.713925
  S     3.430292  4.803843  1.581081
  S     3.039810  8.144698  0.940586
  S     2.765487  5.871794  5.651299
  S     2.386876  8.801937  4.870013
