16  
    
  C    -0.569118  3.180361  2.865985
  C    -1.261767  6.685533  2.706157
  C    -1.785467  2.900473  2.229738
  C    -2.297245  6.135554  1.898663
  N     0.482703  3.208304  2.022264
  N    -0.168552  6.981501  1.994026
  N    -1.678988  2.493136  0.954783
  N    -2.084117  6.142846  0.572236
  N    -2.412553  3.206630  4.742646
  N    -3.181318  6.123096  4.267867
  S    -3.135324  2.741991  3.269087
  S    -3.773263  5.768524  2.779618
  S    -0.102107  2.774713  0.558104
  S    -0.433142  6.557593  0.408104
  S    -0.771296  3.666500  4.546158
  S    -1.650593  6.707954  4.363695
