16  
    
  C    -5.738563  0.953627  1.551372
  C    -5.960057  4.769504  1.390449
  C    -6.916551  0.449472  0.894494
  C    -7.162856  4.262709  0.686252
  N    -4.672808  1.015440  0.788818
  N    -4.933449  4.874227  0.595553
  N    -6.705532  0.271314 -0.399739
  N    -7.002855  4.132308 -0.607793
  N    -7.532790  0.641046  3.336627
  N    -7.663405  4.503543  3.242502
  S    -8.276433  0.128115  1.911599
  S    -8.461688  3.981709  1.848508
  S    -5.143444  0.613408 -0.707933
  S    -5.399907  4.450845 -0.922919
  S    -5.958584  1.032120  3.279748
  S    -6.004135  4.737939  3.120754
