16  
    
  C     0.573586  3.496620  2.695456
  C     0.609331  7.618767  2.662474
  C    -0.709661  3.415341  2.081899
  C    -0.529578  7.072761  2.030657
  N     1.586394  3.667404  1.883047
  N     1.577861  8.029242  1.840306
  N    -0.680055  3.304855  0.746735
  N    -0.403403  7.002354  0.696530
  N    -1.084225  3.258660  4.634275
  N    -0.952961  7.079567  4.648661
  S    -1.895319  2.933929  3.192489
  S    -1.735310  6.656631  3.225212
  S     0.894708  3.654450  0.365673
  S     1.039119  7.681902  0.290440
  S     0.506143  3.543451  4.522010
  S     0.571433  7.717194  4.376541
