16  
    
  C    -3.223136  1.832662  1.927582
  C    -3.210147  5.692028  2.119471
  C    -4.385852  1.587851  1.165457
  C    -4.338198  5.099538  1.495838
  N    -2.097974  1.924156  1.195853
  N    -2.257064  6.061056  1.237176
  N    -4.130659  1.331156 -0.133351
  N    -4.287689  5.037188  0.169655
  N    -5.143645  1.730233  3.653891
  N    -4.788764  5.195219  4.031680
  S    -5.747366  1.190992  2.221586
  S    -5.639606  4.759033  2.611228
  S    -2.457448  1.598266 -0.364327
  S    -2.736624  5.531479 -0.263850
  S    -3.526305  1.998883  3.645522
  S    -3.258399  5.816813  3.846424
