16  
    
  C    -3.124326  2.138750  1.701179
  C    -3.068413  5.883745  1.998813
  C    -4.263660  1.641507  0.992841
  C    -4.325252  5.436548  1.417599
  N    -2.062223  2.466799  0.946506
  N    -2.141616  6.127164  1.052350
  N    -4.030659  1.424211 -0.286852
  N    -4.365793  5.415669  0.104714
  N    -4.994290  1.602921  3.452050
  N    -4.619300  5.432595  3.984654
  S    -5.464947  0.960269  2.047933
  S    -5.519345  5.316507  2.674643
  S    -2.480697  1.959379 -0.610062
  S    -2.847599  5.706611 -0.437311
  S    -3.474860  2.206122  3.433009
  S    -3.025224  6.019422  3.794975
