16  
    
  C    -1.573794  2.641766  2.402565
  C    -1.662299  6.167121  2.360262
  C    -2.768336  2.282228  1.683523
  C    -2.836843  5.681450  1.689044
  N    -0.506142  2.789453  1.636445
  N    -0.636187  6.386639  1.554584
  N    -2.550050  1.879467  0.452325
  N    -2.711714  5.746945  0.379846
  N    -3.528324  2.479133  4.107107
  N    -3.425301  6.087518  4.259009
  S    -4.220223  2.024719  2.659998
  S    -4.145983  5.451782  2.877580
  S    -0.938379  2.224583  0.097431
  S    -1.108454  6.035999  0.006756
  S    -1.915444  2.894247  4.079784
  S    -1.823889  6.514057  4.143960
