16  
    
  C     3.095612  5.048800  3.394731
  C     3.288107  8.872381  3.577666
  C     1.949734  4.473333  2.671811
  C     2.028314  8.600486  2.947556
  N     4.123954  5.464880  2.660020
  N     4.319949  9.055055  2.756975
  N     2.235687  4.310603  1.399011
  N     2.150488  8.537190  1.650790
  N     1.164538  5.075304  5.124525
  N     1.531816  8.895092  5.464306
  S     0.624250  4.139800  3.856215
  S     0.708806  8.573807  4.065382
  S     3.705009  5.003727  1.068977
  S     3.676998  8.832594  1.251802
  S     2.784029  5.353857  5.084698
  S     3.156260  9.302092  5.290394
