16  
    
  C     0.827185  4.144129  2.427135
  C     1.525981  8.266822  3.239667
  C    -0.287608  3.418185  1.900223
  C     0.276971  8.029733  2.652287
  N     1.961276  4.266253  1.679482
  N     2.536031  8.407614  2.410530
  N    -0.175728  3.092255  0.609652
  N     0.323792  8.077179  1.335046
  N    -0.889301  3.793686  4.387452
  N    -0.272157  8.206570  5.141901
  S    -1.611631  3.124790  3.022814
  S    -1.045856  7.973767  3.697417
  S     1.342535  3.654937  0.183147
  S     1.880674  8.258561  0.828264
  S     0.724873  4.171638  4.137704
  S     1.410169  8.278893  4.968971
