16  
    
  C     0.554998  3.469166  2.808583
  C     0.792943  7.682327  2.680998
  C    -0.664483  3.153221  2.053172
  C    -0.451686  7.209027  1.983413
  N     1.539020  3.950243  2.080068
  N     1.760826  8.032179  1.803304
  N    -0.521921  3.120109  0.708747
  N    -0.371288  7.216023  0.653439
  N    -1.322962  3.247478  4.538883
  N    -0.794096  6.768758  4.549363
  S    -1.978020  2.775942  3.128973
  S    -1.608884  6.546915  3.081188
  S     1.121311  3.570693  0.489525
  S     1.089941  7.805367  0.237657
  S     0.285658  3.691686  4.495586
  S     0.669310  7.591290  4.428473
