16  
    
  C     0.687744  3.630279  2.806104
  C     0.537648  7.662633  2.673048
  C    -0.550278  3.368711  2.202655
  C    -0.592937  6.921259  2.188035
  N     1.615534  4.040708  1.920087
  N     1.546201  7.831619  1.823571
  N    -0.611894  3.288567  0.877412
  N    -0.511128  6.657907  0.879257
  N    -0.925460  3.513074  4.794865
  N    -0.980357  7.304251  4.776061
  S    -1.844905  3.237486  3.371343
  S    -1.783550  6.632351  3.469331
  S     0.935766  3.708746  0.405796
  S     0.926909  7.228616  0.343708
  S     0.661061  3.701884  4.531624
  S     0.457316  8.093233  4.418198
