16  
    
  C    -5.515851  0.982172  1.366912
  C    -5.204998  5.044101  1.251970
  C    -6.691667  0.386225  0.804809
  C    -6.338546  4.309726  0.701313
  N    -4.447893  1.162510  0.561178
  N    -4.304382  5.362681  0.313689
  N    -6.596206  0.222217 -0.534503
  N    -6.321238  4.069820 -0.639096
  N    -7.281758  0.652009  3.240622
  N    -6.674445  4.373553  3.288780
  S    -8.003242  0.185793  1.870866
  S    -7.481159  3.882077  1.944729
  S    -5.075495  0.736238 -0.922276
  S    -4.882985  4.749278 -1.141955
  S    -5.703503  1.086496  3.116628
  S    -5.212338  5.148811  3.067038
