16  
    
  C    -2.378602  2.194723  2.008306
  C    -2.503237  5.655535  2.109934
  C    -3.690671  1.931848  1.446433
  C    -3.704032  5.291606  1.367738
  N    -1.392709  1.973790  1.156972
  N    -1.434374  5.799854  1.306941
  N    -3.711457  1.619182  0.160986
  N    -3.579075  5.159098  0.042863
  N    -4.132748  2.206562  3.929306
  N    -4.406077  5.522914  3.884087
  S    -5.056907  2.104218  2.542360
  S    -5.092004  5.311625  2.413030
  S    -2.170830  1.572738 -0.304021
  S    -1.907780  5.380701 -0.222478
  S    -2.446799  2.341195  3.728824
  S    -2.784852  5.985851  3.813282
