16  
    
  C    -1.747084  2.418673  1.928368
  C    -1.690061  6.243859  2.148680
  C    -2.998371  1.996238  1.272576
  C    -2.906839  5.871047  1.515746
  N    -0.672358  2.470966  1.139050
  N    -0.626050  6.318197  1.348963
  N    -2.812020  1.818123 -0.012117
  N    -2.780297  5.634777  0.273272
  N    -3.577552  2.103549  3.772199
  N    -3.615920  6.184075  3.847575
  S    -4.348591  1.935728  2.301679
  S    -4.311359  5.587955  2.435702
  S    -1.239762  2.172577 -0.376198
  S    -1.202371  5.948059 -0.208670
  S    -1.908859  2.362114  3.692650
  S    -1.997064  6.681463  3.807069
