16  
    
  C    -5.425524  1.117168  1.301185
  C    -5.374321  4.755775  1.563895
  C    -6.582247  0.578498  0.552922
  C    -6.586835  4.354753  0.883706
  N    -4.415090  1.484023  0.509343
  N    -4.324368  5.132022  0.786141
  N    -6.486942  0.494873 -0.780118
  N    -6.488217  4.308299 -0.457271
  N    -7.160126  0.530027  3.151894
  N    -7.276520  4.590672  3.352650
  S    -7.850917  0.093845  1.650713
  S    -7.965551  4.101233  1.902175
  S    -4.895587  1.056438 -1.066953
  S    -4.967768  4.831212 -0.737052
  S    -5.596890  1.205081  3.040930
  S    -5.674058  5.012496  3.243533
