16  
    
  C    -0.466139  3.463000  2.917770
  C    -0.991713  6.765148  2.764937
  C    -1.622227  2.846904  2.273067
  C    -2.091305  6.243555  1.891634
  N     0.629022  3.461523  2.192729
  N     0.128367  7.065178  2.127508
  N    -1.467375  2.616580  0.962987
  N    -1.730666  6.151533  0.616083
  N    -2.259089  3.406867  4.699367
  N    -2.974227  6.330825  4.297864
  S    -2.986592  2.782623  3.360429
  S    -3.596097  6.009653  2.736144
  S     0.092095  3.082681  0.624229
  S    -0.186318  6.598914  0.595859
  S    -0.671030  3.755234  4.631134
  S    -1.426543  6.934860  4.358955
