16  
    
  C     3.067460  5.070911  3.379325
  C     3.328125  8.908254  3.589760
  C     1.976919  4.422301  2.693112
  C     2.043874  8.627391  2.987135
  N     4.105121  5.474424  2.661959
  N     4.357740  9.036871  2.725689
  N     2.209083  4.328353  1.404278
  N     2.128716  8.498832  1.656268
  N     1.164635  5.085597  5.109530
  N     1.560986  8.875606  5.439759
  S     0.613425  4.136928  3.850554
  S     0.709989  8.580013  4.068479
  S     3.714329  5.002974  1.052504
  S     3.646652  8.817370  1.211428
  S     2.778998  5.362102  5.106588
  S     3.153040  9.301291  5.301179
