16  
    
  C    -5.528168  1.066540  1.349365
  C    -5.084191  4.954989  1.326783
  C    -6.658669  0.432357  0.639909
  C    -6.124518  4.169695  0.763935
  N    -4.476581  1.312948  0.568583
  N    -4.141318  5.457285  0.481517
  N    -6.582123  0.364689 -0.734557
  N    -6.088451  4.098993 -0.592425
  N    -7.235959  0.509536  3.168205
  N    -6.713491  4.437369  3.314657
  S    -7.986365  0.085361  1.782990
  S    -7.455684  3.816476  1.953946
  S    -4.980250  0.901687 -1.009285
  S    -4.756536  4.978655 -1.021539
  S    -5.719629  1.198834  3.101152
  S    -5.354904  5.333908  3.022381
