16  
    
  C     2.229613  4.810403  3.156307
  C     1.988215  8.971456  3.415756
  C     1.005886  4.314861  2.529707
  C     0.837025  8.411348  2.751749
  N     3.255665  5.005650  2.311397
  N     3.055387  9.250361  2.654457
  N     0.957779  4.421464  1.184956
  N     1.033898  8.182793  1.447901
  N     0.509871  4.279674  5.074837
  N     0.395818  8.483047  5.261128
  S    -0.293096  4.016752  3.686601
  S    -0.520662  8.334498  3.884838
  S     2.490231  4.964916  0.795716
  S     2.685876  8.575205  1.164320
  S     2.088975  4.689226  4.912218
  S     1.931146  8.993089  5.080372
