16  
    
  C    -1.595526  2.637487  2.399332
  C    -1.678614  6.162741  2.391615
  C    -2.829088  2.258723  1.683849
  C    -2.869259  5.691228  1.707981
  N    -0.498169  2.779342  1.625936
  N    -0.663915  6.361965  1.559437
  N    -2.564630  1.849647  0.451960
  N    -2.693778  5.720386  0.391204
  N    -3.529630  2.467028  4.118155
  N    -3.460981  6.033006  4.279655
  S    -4.237730  2.056399  2.663299
  S    -4.152431  5.432374  2.875265
  S    -0.954591  2.242578  0.091316
  S    -1.105464  6.025033 -0.003158
  S    -1.915548  2.881307  4.099124
  S    -1.840517  6.496124  4.145098
