16  
    
  C     2.190450  4.469843  3.082372
  C     2.029821  8.284377  3.151738
  C     1.075457  3.969533  2.289050
  C     0.873354  7.624560  2.578375
  N     3.318757  4.303419  2.430331
  N     3.075990  8.265925  2.293129
  N     1.277741  3.832636  0.985590
  N     0.932631  7.149364  1.320709
  N     0.240369  4.461502  4.712646
  N     0.055118  8.439192  4.926655
  S    -0.385361  3.838707  3.216149
  S    -0.514930  7.528223  3.611264
  S     2.990787  4.018724  0.809876
  S     2.541665  7.433277  0.950217
  S     1.892412  4.751763  4.755139
  S     1.650123  9.019205  4.709925
