16  
    
  C     1.895888  4.317298  3.082361
  C     1.984055  7.993164  3.126040
  C     0.653001  4.044014  2.452132
  C     0.797414  7.602158  2.426613
  N     2.924560  4.159279  2.243401
  N     2.997496  8.221485  2.303828
  N     0.681157  3.830877  1.120964
  N     0.886681  7.503514  1.120726
  N     0.219171  4.273456  5.114095
  N     0.159162  7.522892  4.956732
  S    -0.698407  3.989010  3.653903
  S    -0.525600  7.224926  3.465086
  S     2.266267  3.986607  0.764087
  S     2.449619  7.868166  0.730068
  S     1.875875  4.548610  4.827008
  S     1.775506  8.002965  4.879748
