16  
    
  C     1.754662  4.551169  3.328113
  C     1.395246  8.181663  3.005771
  C     0.534896  4.071755  2.796107
  C     0.343357  7.414879  2.388989
  N     2.763329  4.609871  2.463985
  N     2.356870  8.616194  2.162160
  N     0.605247  3.802145  1.486391
  N     0.567442  7.069732  1.109304
  N     0.025442  4.563297  5.317593
  N    -0.368846  7.553227  4.874905
  S    -0.831106  4.297142  3.926996
  S    -0.990976  7.005441  3.434982
  S     2.180959  4.006299  1.081670
  S     1.893217  7.936417  0.684036
  S     1.681540  4.855170  5.072496
  S     1.197512  8.207298  4.792642
