16  
    
  C    -4.178323  1.441305  1.881739
  C    -3.994340  5.206385  1.935177
  C    -5.417475  1.091568  1.265622
  C    -5.233538  4.814965  1.384729
  N    -3.109840  1.379454  1.048435
  N    -2.937575  4.967688  1.170162
  N    -5.324231  1.045515 -0.087344
  N    -5.208022  4.385030  0.109567
  N    -5.962765  1.395962  3.854737
  N    -5.755548  5.333951  3.946074
  S    -6.749849  1.099747  2.388417
  S    -6.590894  4.816547  2.550461
  S    -3.698805  1.189708 -0.460170
  S    -3.598593  4.442209 -0.337913
  S    -4.341798  1.653879  3.694291
  S    -4.106274  5.699445  3.668896
