16  
    
  C    -4.159396  1.342764  1.919160
  C    -4.097964  5.008946  1.991297
  C    -5.457825  1.231640  1.249362
  C    -5.335949  4.727561  1.429423
  N    -3.072859  1.469912  1.149700
  N    -3.093055  5.020290  1.152766
  N    -5.320833  1.035302 -0.056054
  N    -5.310121  4.437576  0.132188
  N    -6.027142  1.448685  3.668338
  N    -5.729613  5.313800  3.822919
  S    -6.804510  1.167893  2.257312
  S    -6.628884  4.942927  2.523674
  S    -3.691641  1.194551 -0.416188
  S    -3.701438  4.568267 -0.242914
  S    -4.358531  1.550914  3.592453
  S    -4.127203  5.601255  3.603218
