16  
    
  C     1.867103  4.277938  3.221258
  C     1.795148  7.841925  3.052120
  C     0.618411  3.871403  2.670455
  C     0.592951  7.403819  2.427085
  N     2.909979  4.279456  2.347487
  N     2.777695  8.217400  2.251833
  N     0.634048  3.895863  1.315069
  N     0.731819  7.430464  1.092874
  N     0.100043  4.195369  5.180498
  N     0.204670  7.405051  5.004093
  S    -0.735442  4.053334  3.720779
  S    -0.645954  7.090189  3.594618
  S     2.197787  4.144461  0.809817
  S     2.187939  8.092341  0.728441
  S     1.820104  4.182697  4.993926
  S     1.828891  7.821094  4.760598
