16  
    
  C    -5.882557  0.798546  1.553712
  C    -6.057822  4.384455  1.717278
  C    -7.045449  0.195849  0.916223
  C    -7.335879  4.080195  0.926287
  N    -5.019361  1.249785  0.671636
  N    -4.976112  4.661106  1.002533
  N    -7.009927  0.028309 -0.414808
  N    -7.080619  4.026937 -0.382264
  N    -7.503965  0.311974  3.503873
  N    -7.981865  4.089421  3.475029
  S    -8.361047 -0.181631  2.061082
  S    -8.712207  3.915334  1.987189
  S    -5.621318  0.819023 -0.822372
  S    -5.496352  4.467781 -0.553240
  S    -6.010170  1.100920  3.260579
  S    -6.398194  4.641712  3.393445
