16  
    
  C    -2.793956  2.363951  1.971327
  C    -2.682590  5.809046  2.039980
  C    -4.045381  2.142624  1.182639
  C    -3.879961  5.284742  1.372677
  N    -1.701033  2.480030  1.227426
  N    -1.634132  5.930273  1.259124
  N    -3.804444  1.959741 -0.109890
  N    -3.761797  5.134086  0.074473
  N    -4.591950  1.886426  3.714035
  N    -4.427540  5.703821  3.933596
  S    -5.378609  1.605939  2.293655
  S    -5.227066  5.297550  2.530189
  S    -2.207242  2.122579 -0.353609
  S    -2.103815  5.431362 -0.239254
  S    -3.026253  2.393929  3.659867
  S    -2.919850  6.228697  3.764912
