16  
    
  C    -2.499261  2.507087  1.972682
  C    -2.429619  6.210722  2.153146
  C    -3.766575  2.174854  1.442594
  C    -3.560149  5.578382  1.476217
  N    -1.465714  2.573744  1.104898
  N    -1.371145  6.430811  1.308497
  N    -3.705873  1.847854  0.151329
  N    -3.338890  5.375655  0.179860
  N    -4.165721  2.465396  3.941512
  N    -4.268303  5.878066  3.879166
  S    -5.018155  1.963118  2.622446
  S    -4.985467  5.375885  2.458827
  S    -2.149407  2.176406 -0.340715
  S    -1.692914  5.739108 -0.167361
  S    -2.622246  2.928539  3.704039
  S    -2.722622  6.500141  3.830684
