16  
    
  C    -4.029874  1.437907  1.691948
  C    -3.967926  5.105130  1.960550
  C    -5.272345  1.353552  1.024387
  C    -5.295347  5.020442  1.275722
  N    -2.996244  1.427517  0.849311
  N    -2.946980  5.434864  1.181320
  N    -5.194718  1.098585 -0.275373
  N    -5.197541  5.207660 -0.024933
  N    -5.780358  1.599734  3.481759
  N    -5.860235  4.886918  3.660942
  S    -6.677846  1.327141  2.101525
  S    -6.707941  4.889627  2.222310
  S    -3.560813  1.137261 -0.620470
  S    -3.636832  5.484877 -0.410663
  S    -4.122448  1.673550  3.391948
  S    -4.234530  5.215782  3.678715
