16  
    
  C     3.112004  5.058950  3.454125
  C     3.329170  8.816155  3.719427
  C     1.870215  4.511634  2.904377
  C     2.000625  8.647163  3.238146
  N     4.142176  5.066975  2.618424
  N     4.246239  8.599300  2.778851
  N     1.956011  4.382411  1.561144
  N     1.824977  8.273774  1.967085
  N     1.459144  5.001746  5.431637
  N     1.818426  9.392428  5.688497
  S     0.554799  4.673108  4.089869
  S     0.807240  9.074298  4.445986
  S     3.545330  4.736850  1.156299
  S     3.454906  8.194114  1.379110
  S     3.018806  5.348262  5.133926
  S     3.405883  9.252090  5.412516
