16  
    
  C    -2.917655  2.440929  1.921822
  C    -2.738958  5.916043  2.067772
  C    -4.060052  1.955006  1.169886
  C    -3.970393  5.487349  1.440062
  N    -1.857116  2.607053  1.146999
  N    -1.743707  5.960368  1.173116
  N    -3.896556  1.799829 -0.136152
  N    -3.893475  5.163349  0.189379
  N    -4.726834  1.851708  3.673359
  N    -4.539001  5.754138  3.950316
  S    -5.384087  1.503067  2.150574
  S    -5.293616  5.205363  2.542579
  S    -2.289178  2.205024 -0.384676
  S    -2.333625  5.527536 -0.305978
  S    -3.110309  2.337770  3.613109
  S    -2.908654  6.210085  3.753456
