16  
    
  C     0.017107  3.603841  2.573563
  C     0.278997  7.545185  2.668685
  C    -1.129702  2.924431  1.956288
  C    -0.947475  7.119239  2.007493
  N     1.024926  3.839150  1.744935
  N     1.356978  7.712254  1.918476
  N    -0.976303  2.678960  0.661947
  N    -0.779168  7.010078  0.700024
  N    -1.806764  3.399882  4.392058
  N    -1.442089  7.190550  4.504425
  S    -2.391249  2.634896  3.094137
  S    -2.312259  6.995103  3.111752
  S     0.545932  3.168114  0.301269
  S     0.818977  7.275207  0.378189
  S    -0.259507  4.084886  4.270225
  S     0.227027  7.491818  4.366332
