16  
    
  C    -0.355959  3.339849  2.692149
  C    -0.325870  7.008839  2.455451
  C    -1.462303  2.692604  2.062843
  C    -1.463157  6.386757  1.895408
  N     0.716962  3.536091  1.954933
  N     0.753974  7.207169  1.695737
  N    -1.178552  2.232856  0.861946
  N    -1.300082  5.997568  0.635353
  N    -2.266254  3.051927  4.422867
  N    -2.177996  7.022921  4.382340
  S    -2.798933  2.306847  3.087011
  S    -2.815499  6.212412  3.078543
  S     0.290176  2.874924  0.457542
  S     0.279429  6.457995  0.200193
  S    -0.747913  3.701803  4.426751
  S    -0.583117  7.483992  4.176458
