16  
    
  C    -3.153862  1.899792  1.823660
  C    -3.070849  5.753439  2.054021
  C    -4.242127  1.368272  1.043844
  C    -4.359839  5.359667  1.496480
  N    -2.086941  2.178386  1.106181
  N    -2.164168  6.089763  1.163540
  N    -3.993829  1.119885 -0.239777
  N    -4.345074  5.296978  0.165513
  N    -5.153157  1.635056  3.515273
  N    -4.845564  5.379363  4.058017
  S    -5.707666  1.156864  1.996322
  S    -5.657588  5.099059  2.654840
  S    -2.484637  1.751456 -0.496248
  S    -2.867655  5.764866 -0.367395
  S    -3.530087  2.154078  3.510777
  S    -3.192414  5.822640  3.851965
