16  
    
  C    -1.779625  2.451192  2.031455
  C    -1.888071  6.510008  2.137492
  C    -3.027591  2.120853  1.452703
  C    -2.889521  5.569561  1.641584
  N    -0.777701  2.624835  1.172642
  N    -0.875071  6.683507  1.285609
  N    -2.966660  1.869774  0.160484
  N    -2.691528  5.123206  0.419890
  N    -3.434230  2.096858  4.007192
  N    -3.601984  6.199701  4.128530
  S    -4.351085  1.868940  2.643097
  S    -4.274912  5.341329  2.867927
  S    -1.404943  2.130812 -0.309128
  S    -1.328678  5.936840 -0.135173
  S    -1.855023  2.592377  3.763424
  S    -2.132402  6.921988  3.878471
