16  
    
  C    -3.440654  1.706790  1.781214
  C    -3.701247  5.667294  1.777311
  C    -4.546214  1.031469  1.184072
  C    -4.865427  5.345433  1.029671
  N    -2.509691  2.022806  0.855934
  N    -2.637661  5.910534  1.020397
  N    -4.328690  0.693759 -0.105926
  N    -4.708558  5.223208 -0.276181
  N    -5.303696  1.518349  3.644282
  N    -5.347311  5.095488  3.582290
  S    -5.918460  0.762755  2.292227
  S    -6.154957  4.945938  2.083392
  S    -2.876256  1.385904 -0.590842
  S    -3.121468  5.668403 -0.593196
  S    -3.735701  2.125639  3.490346
  S    -3.818285  5.700287  3.529523
