16  
    
  C     0.654284  3.797261  3.210697
  C     1.120026  7.585214  2.798985
  C    -0.510774  3.375990  2.416050
  C    -0.028576  7.022845  2.097276
  N     1.694151  4.068463  2.447249
  N     2.183338  7.665796  2.014883
  N    -0.264252  3.244620  1.112491
  N     0.197317  6.891455  0.813812
  N    -1.185249  3.136625  4.881431
  N    -0.739934  7.235083  4.598906
  S    -1.859441  2.871226  3.409400
  S    -1.362966  6.727000  3.122572
  S     1.233130  3.854861  0.897682
  S     1.793288  7.219648  0.462751
  S     0.436231  3.656595  4.931303
  S     0.802059  7.865889  4.471624
