16  
    
  C     1.203184  4.419967  3.163430
  C     1.665973  8.172921  3.020665
  C    -0.011423  3.962663  2.528276
  C     0.384724  7.992778  2.354931
  N     2.134012  4.593972  2.244629
  N     2.735135  8.000011  2.222851
  N    -0.055991  4.115846  1.217335
  N     0.423923  7.780937  1.017768
  N    -0.460662  4.191941  5.157675
  N    -0.125910  8.255018  4.886007
  S    -1.240337  3.771887  3.683186
  S    -0.978895  8.153074  3.455410
  S     1.536370  4.416594  0.735166
  S     2.082129  7.831192  0.752050
  S     1.126810  4.576678  4.877189
  S     1.536445  8.367640  4.739022
