16  
    
  C     2.993122  5.425752  3.940060
  C     2.393506  8.592315  3.229509
  C     1.740477  5.029841  3.352396
  C     1.204121  8.069424  2.574894
  N     3.987317  5.470628  3.044784
  N     3.400242  8.786244  2.438578
  N     1.877311  4.493216  2.141557
  N     1.409821  7.743297  1.296427
  N     1.134282  5.682850  5.725264
  N     0.731002  8.249614  5.152984
  S     0.399406  4.851546  4.471747
  S    -0.179895  8.064742  3.716303
  S     3.426861  4.788138  1.591154
  S     3.046320  8.165824  0.959982
  S     2.755315  5.857554  5.651517
  S     2.364359  8.801794  4.867438
