16  
    
  C    -4.267065  1.567496  2.034722
  C    -4.625227  5.204425  1.686390
  C    -5.396602  0.925422  1.342831
  C    -5.853047  4.735807  1.089855
  N    -3.215058  1.752115  1.225490
  N    -3.626449  5.416909  0.845489
  N    -5.155990  0.663084  0.064838
  N    -5.775423  4.457178 -0.222678
  N    -6.201676  1.548074  3.712622
  N    -6.288477  5.117468  3.693250
  S    -6.871691  0.946446  2.353715
  S    -7.153002  4.597823  2.295749
  S    -3.683744  1.191041 -0.280825
  S    -4.152967  4.828068 -0.619377
  S    -4.586556  1.963140  3.682279
  S    -4.616263  5.476893  3.402992
