16  
    
  C    -2.581073  2.075376  2.026996
  C    -2.502345  5.743643  2.150485
  C    -3.813673  1.767167  1.403680
  C    -3.661685  5.377550  1.385902
  N    -1.558455  2.153526  1.179953
  N    -1.418477  5.884330  1.369244
  N    -3.759343  1.659519  0.071856
  N    -3.464818  5.156819  0.105836
  N    -4.369847  2.135477  3.897047
  N    -4.502253  5.956118  3.798235
  S    -5.224347  2.023574  2.432223
  S    -5.077228  5.276725  2.396748
  S    -2.145004  1.961311 -0.335110
  S    -1.871245  5.317990 -0.197972
  S    -2.702579  2.393472  3.706825
  S    -2.847338  6.062006  3.846529
