16  
    
  C    -3.231945  1.876595  2.004523
  C    -3.136861  5.496967  2.125885
  C    -4.442622  1.356782  1.336831
  C    -4.248824  4.792867  1.449465
  N    -2.186104  2.096890  1.186377
  N    -2.197040  5.856759  1.296501
  N    -4.345741  1.322062  0.019630
  N    -4.140316  4.694096  0.130166
  N    -5.015466  1.579872  3.876756
  N    -4.829818  5.091279  3.945089
  S    -5.770737  1.206496  2.470955
  S    -5.586672  4.517380  2.568836
  S    -2.820595  1.792923 -0.380162
  S    -2.609177  5.309737 -0.184766
  S    -3.419327  1.881430  3.799614
  S    -3.336764  5.882293  3.804974
