16  
    
  C    -3.459271  1.709993  1.760197
  C    -3.684736  5.675744  1.797817
  C    -4.537300  1.003513  1.196267
  C    -4.870202  5.366495  1.027943
  N    -2.508751  2.043736  0.865927
  N    -2.631584  5.902784  1.032738
  N    -4.330187  0.694487 -0.076426
  N    -4.703688  5.223235 -0.276147
  N    -5.302135  1.519442  3.635344
  N    -5.334248  5.105503  3.571467
  S    -5.923587  0.760592  2.301110
  S    -6.163013  4.942648  2.086343
  S    -2.887320  1.395352 -0.576026
  S    -3.136717  5.668669 -0.594618
  S    -3.752583  2.125329  3.490660
  S    -3.805839  5.705473  3.537737
