16  
    
  C    -1.724384  2.285585  1.931650
  C    -1.751397  6.358045  2.100730
  C    -3.021754  2.024994  1.260322
  C    -2.869419  5.772522  1.412903
  N    -0.707284  2.491911  1.121399
  N    -0.662851  6.481363  1.340240
  N    -2.894497  1.932029 -0.047424
  N    -2.745859  5.601690  0.082795
  N    -3.506613  2.312587  3.771221
  N    -3.608471  6.197975  3.943247
  S    -4.289834  1.864239  2.394860
  S    -4.202753  5.566573  2.540061
  S    -1.310367  2.211558 -0.436128
  S    -1.127870  5.896757 -0.128039
  S    -1.844535  2.385205  3.681027
  S    -2.107612  6.845992  3.777935
