16  
    
  C     0.488290  3.483180  2.957411
  C     0.470871  7.514100  2.914003
  C    -0.800345  3.479772  2.341191
  C    -0.817576  7.307893  2.353059
  N     1.487635  3.849392  2.121760
  N     1.438694  7.606052  2.024746
  N    -0.811154  3.784457  1.043301
  N    -0.874542  7.154479  1.048811
  N    -1.184850  2.997605  4.866978
  N    -1.201491  7.634807  4.876251
  S    -2.148022  3.143332  3.483499
  S    -2.099054  7.240430  3.485171
  S     0.744832  3.904524  0.623123
  S     0.639405  7.428194  0.532504
  S     0.396674  3.368830  4.690193
  S     0.436549  7.779530  4.617943
