16  
    
  C    -2.665785  2.617042  2.160255
  C    -2.559710  6.214084  2.064721
  C    -3.843433  1.926599  1.613622
  C    -3.636698  5.646352  1.283864
  N    -1.650505  2.802819  1.307801
  N    -1.524188  6.630009  1.324245
  N    -3.672910  1.674950  0.311706
  N    -3.440085  5.612133 -0.027072
  N    -4.397437  2.403258  4.123018
  N    -4.514841  6.104781  3.733824
  S    -5.151346  1.801810  2.743877
  S    -5.106476  5.349195  2.332466
  S    -2.210876  2.293039 -0.170142
  S    -1.906435  6.129013 -0.256285
  S    -2.786939  2.848844  3.852651
  S    -2.916546  6.612932  3.697751
