16  
    
  C    -4.348410  1.603559  1.986079
  C    -4.613327  5.223282  1.720103
  C    -5.453602  0.912306  1.406149
  C    -5.822065  4.611058  1.124150
  N    -3.291374  1.754592  1.197563
  N    -3.632874  5.344844  0.820957
  N    -5.310661  0.764891  0.065412
  N    -5.762227  4.319123 -0.154750
  N    -6.159052  1.334912  3.876576
  N    -6.316777  4.701134  3.665077
  S    -6.822591  0.807093  2.442977
  S    -7.096804  4.443289  2.225012
  S    -3.835663  1.242039 -0.316993
  S    -4.252104  4.827527 -0.648838
  S    -4.545214  1.892620  3.675450
  S    -4.807471  5.392575  3.417026
