16  
    
  C    -4.192099  1.382611  1.872900
  C    -4.094939  4.972761  2.023119
  C    -5.435508  1.217416  1.237159
  C    -5.368579  4.718610  1.435344
  N    -3.087749  1.461701  1.134757
  N    -3.102290  5.043856  1.154559
  N    -5.333449  1.052347 -0.056953
  N    -5.317072  4.437299  0.135647
  N    -6.000458  1.474161  3.615362
  N    -5.764733  5.325509  3.842754
  S    -6.838635  1.187864  2.212067
  S    -6.670544  4.977722  2.523696
  S    -3.670245  1.192304 -0.391348
  S    -3.724018  4.612000 -0.267249
  S    -4.363421  1.523102  3.582096
  S    -4.131045  5.560271  3.591408
