16  
    
  C    -3.079987  2.168293  1.730902
  C    -2.979266  5.876410  1.979530
  C    -4.184858  1.593595  0.981648
  C    -4.259142  5.482539  1.464513
  N    -2.052645  2.507203  0.972189
  N    -2.103553  6.112059  1.030405
  N    -4.007708  1.512237 -0.342541
  N    -4.367216  5.312101  0.156474
  N    -4.989754  1.599068  3.520251
  N    -4.559866  5.500484  4.011178
  S    -5.499115  0.988783  2.056240
  S    -5.503966  5.311636  2.599698
  S    -2.485518  2.026815 -0.620892
  S    -2.838302  5.736608 -0.377089
  S    -3.402871  2.254334  3.456194
  S    -3.012643  6.039357  3.746809
