16  
    
  C    -1.739655  2.310529  1.977538
  C    -1.698145  6.335029  2.175060
  C    -2.957407  2.092513  1.257360
  C    -2.865342  5.782265  1.480255
  N    -0.732640  2.484539  1.128493
  N    -0.650378  6.419265  1.373072
  N    -2.880598  1.828643 -0.066350
  N    -2.751798  5.673060  0.158712
  N    -3.534757  2.236266  3.799209
  N    -3.629217  6.209518  3.883319
  S    -4.312733  1.892760  2.331888
  S    -4.230484  5.575073  2.474129
  S    -1.280025  2.204639 -0.412648
  S    -1.184129  5.901137 -0.159746
  S    -1.863752  2.371137  3.686053
  S    -2.053848  6.774400  3.765712
