16  
    
  C     2.136152  4.449805  2.936311
  C     2.155151  8.532445  3.067055
  C     0.957419  3.895344  2.313080
  C     1.010090  7.737628  2.630072
  N     3.258218  4.542167  2.225980
  N     3.105077  8.685787  2.150848
  N     1.160440  3.627572  1.021533
  N     1.090761  7.208930  1.411807
  N     0.427580  4.219793  4.751847
  N     0.262035  8.510710  4.909331
  S    -0.420682  3.897490  3.358334
  S    -0.402536  7.836376  3.567538
  S     2.757229  4.154448  0.665660
  S     2.586022  7.755313  0.853908
  S     1.987705  4.558821  4.688558
  S     1.819785  9.103153  4.768388
