16  
    
  C    -0.978869  3.079651  2.486494
  C    -0.658750  6.548853  2.366007
  C    -2.196293  2.866356  1.810195
  C    -1.887673  6.275510  1.657857
  N     0.066548  3.038067  1.669459
  N     0.433203  6.616371  1.581294
  N    -2.116341  2.635822  0.501113
  N    -1.740336  6.008188  0.355612
  N    -2.823662  3.209000  4.333703
  N    -2.416493  6.508055  4.187233
  S    -3.618374  2.808246  2.882221
  S    -3.185860  6.136344  2.794995
  S    -0.514693  2.732966  0.156238
  S    -0.125645  6.459568  0.014771
  S    -1.139684  3.388431  4.149218
  S    -0.776649  6.760587  4.063271
