16  
    
  C    -2.801931  2.376659  1.968067
  C    -2.690328  5.808445  2.039262
  C    -4.045550  2.140078  1.183167
  C    -3.889208  5.282149  1.367076
  N    -1.705278  2.483842  1.228402
  N    -1.635314  5.936920  1.258966
  N    -3.806870  1.957456 -0.109917
  N    -3.766105  5.139127  0.073185
  N    -4.594728  1.886371  3.710335
  N    -4.429893  5.704977  3.937024
  S    -5.378681  1.600330  2.290048
  S    -5.225279  5.295969  2.531508
  S    -2.210529  2.125229 -0.352303
  S    -2.112800  5.431659 -0.244618
  S    -3.030512  2.390102  3.653576
  S    -2.921129  6.230201  3.769927
