16  
    
  C     1.664106  4.444689  3.437439
  C     1.415797  7.941546  3.080197
  C     0.312131  4.241303  2.893765
  C     0.204510  7.493809  2.383938
  N     2.609861  4.332717  2.500442
  N     2.426904  8.309228  2.295565
  N     0.304133  3.962882  1.592721
  N     0.324614  7.441333  1.054799
  N    -0.044005  4.670950  5.394563
  N    -0.398711  7.710604  4.888539
  S    -1.026416  4.208078  4.089073
  S    -1.161804  7.223045  3.498447
  S     1.850568  4.063129  1.081412
  S     1.870517  7.950200  0.767616
  S     1.576184  4.872812  5.117052
  S     1.203235  8.222858  4.751047
