16  
    
  C     2.985934  5.154217  3.445715
  C     2.863870  8.739842  3.310640
  C     1.728466  4.779053  2.810706
  C     1.670065  8.209317  2.634039
  N     3.919465  5.617925  2.578558
  N     3.900471  9.124130  2.645365
  N     1.842246  4.641618  1.484459
  N     1.907848  8.201533  1.336466
  N     1.071374  5.102986  5.257844
  N     1.215217  8.312486  5.189430
  S     0.426858  4.348837  3.869148
  S     0.395732  7.772239  3.824558
  S     3.386836  5.213092  1.054156
  S     3.457953  8.916571  1.097211
  S     2.714969  5.370740  5.215956
  S     2.663026  9.027117  5.028444
