16  
    
  C    -5.429642  1.083564  1.266837
  C    -5.372214  4.970803  1.479686
  C    -6.543145  0.451989  0.589107
  C    -6.498261  4.336934  0.732149
  N    -4.357622  1.431323  0.564342
  N    -4.322308  5.295871  0.751045
  N    -6.447643  0.430244 -0.742369
  N    -6.253204  4.221195 -0.573605
  N    -7.192426  0.485006  3.092165
  N    -7.063283  4.238735  3.308334
  S    -7.934916  0.140344  1.652557
  S    -7.857403  4.040842  1.862717
  S    -4.947726  1.153967 -1.035930
  S    -4.759287  4.911830 -0.822525
  S    -5.725187  1.156508  2.963862
  S    -5.679691  5.209699  3.241185
