16  
    
  C    -2.336410  1.930900  2.095716
  C    -2.682204  5.692615  2.070582
  C    -3.673452  1.884941  1.482618
  C    -3.868022  5.264859  1.418035
  N    -1.338490  1.919496  1.179615
  N    -1.635549  5.825188  1.280580
  N    -3.654445  1.683729  0.156740
  N    -3.764302  5.245237  0.088284
  N    -4.058397  2.279762  3.966328
  N    -4.322746  5.498866  3.914102
  S    -5.008009  2.068227  2.637555
  S    -5.103630  4.991928  2.532427
  S    -2.028009  1.833970 -0.294445
  S    -2.128055  5.473582 -0.224408
  S    -2.449473  2.352254  3.731858
  S    -2.713961  5.757538  3.802525
