16  
    
  C     2.464010  4.961404  3.503898
  C     2.458236  8.665024  3.378319
  C     1.328590  4.410692  2.797158
  C     1.233606  8.074862  2.884584
  N     3.576020  4.955922  2.761921
  N     3.433494  8.898651  2.497668
  N     1.483909  4.385637  1.485787
  N     1.310319  7.882700  1.580395
  N     0.606259  4.508558  5.283245
  N     0.966683  8.444730  5.445696
  S     0.017397  3.920816  3.757638
  S     0.031560  7.935278  4.208722
  S     3.062331  4.695368  1.230481
  S     2.841282  8.334262  1.113777
  S     2.186698  5.024708  5.209869
  S     2.496013  8.938308  5.086727
