16  
    
  C     0.488034  3.598704  2.951215
  C     0.593602  7.513329  2.896147
  C    -0.812802  3.662886  2.384040
  C    -0.586039  7.040802  2.141885
  N     1.448533  3.727909  2.035446
  N     1.659616  7.672165  2.125713
  N    -0.876964  3.512558  1.040282
  N    -0.409771  6.818975  0.840865
  N    -1.140603  3.518186  4.945518
  N    -1.434861  7.258488  4.629157
  S    -2.018865  3.303643  3.585611
  S    -2.086365  7.057281  3.104240
  S     0.720090  3.839200  0.539844
  S     1.175007  7.205139  0.600693
  S     0.543585  3.652159  4.693770
  S     0.212950  7.775737  4.631024
