16  
    
  C    -4.260304  1.640116  1.957743
  C    -4.531256  5.263606  1.692443
  C    -5.425270  1.017982  1.328810
  C    -5.789313  4.744836  1.130544
  N    -3.167429  1.758045  1.205030
  N    -3.543630  5.319708  0.816330
  N    -5.208914  0.663085  0.093237
  N    -5.692171  4.542375 -0.189997
  N    -6.232046  1.604691  3.787347
  N    -6.233534  5.242089  3.664058
  S    -6.824774  0.997820  2.332822
  S    -7.012612  4.674151  2.356761
  S    -3.573009  1.100722 -0.301018
  S    -4.121917  4.850089 -0.664034
  S    -4.640012  1.979203  3.618277
  S    -4.674188  5.500558  3.417834
