16  
    
  C    -5.184413  1.228331  1.748330
  C    -5.091346  5.026337  1.415445
  C    -6.301553  0.568433  1.134462
  C    -6.193397  4.419822  0.755845
  N    -4.124257  1.378140  0.954875
  N    -4.008295  5.087768  0.661185
  N    -6.088854  0.274710 -0.133678
  N    -6.008937  4.185367 -0.524141
  N    -6.932965  0.956327  3.612828
  N    -6.876362  4.588661  3.215989
  S    -7.604140  0.346422  2.261312
  S    -7.527825  4.046468  1.780377
  S    -4.559613  0.664972 -0.464870
  S    -4.395482  4.466706 -0.836297
  S    -5.379918  1.375767  3.524178
  S    -5.381331  5.258208  3.121152
