16  
    
  C     0.455579  3.822758  2.863055
  C     0.849263  7.566095  2.630507
  C    -0.483741  3.037947  2.127002
  C    -0.323807  7.145760  1.985051
  N     1.607387  4.058902  2.178544
  N     1.767819  8.053538  1.859718
  N    -0.227592  2.902233  0.842011
  N    -0.232250  7.232359  0.661969
  N    -1.439423  3.176443  4.512357
  N    -0.691258  6.839073  4.496796
  S    -2.000335  2.633590  3.035455
  S    -1.521701  6.470812  3.105282
  S     1.197915  3.646434  0.590898
  S     1.254075  7.832322  0.281598
  S     0.129509  3.734114  4.582099
  S     0.795573  7.504258  4.322338
