16  
    
  C    -4.257489  1.388242  1.792698
  C    -4.098072  5.100914  1.983613
  C    -5.463767  1.274998  1.058433
  C    -5.396054  4.753854  1.385229
  N    -3.112971  1.418724  1.119517
  N    -3.115233  5.031327  1.066012
  N    -5.260137  1.080592 -0.228239
  N    -5.346021  4.473738  0.079236
  N    -6.120183  1.565893  3.623076
  N    -5.878087  5.373799  3.910650
  S    -6.822569  1.235295  2.158176
  S    -6.748882  5.031221  2.530017
  S    -3.592721  1.154688 -0.507254
  S    -3.771297  4.768028 -0.419544
  S    -4.415386  1.483862  3.577680
  S    -4.221173  5.419182  3.733120
