16  
    
  C    -3.842883  1.525565  1.747718
  C    -3.978814  5.543882  1.933676
  C    -5.090523  1.348146  1.159570
  C    -5.148325  5.187653  1.139703
  N    -2.844410  1.679982  0.906381
  N    -2.911860  5.832881  1.189590
  N    -5.063472  1.206864 -0.161993
  N    -4.957731  5.233412 -0.161913
  N    -5.530932  1.481506  3.666103
  N    -5.810450  4.713299  3.551340
  S    -6.371527  1.293330  2.215927
  S    -6.541849  4.705438  2.001358
  S    -3.447943  1.485798 -0.547635
  S    -3.402975  5.661734 -0.421060
  S    -3.856008  1.746951  3.501382
  S    -4.184096  5.184768  3.578450
