16  
    
  C     0.788063  3.690071  2.811957
  C     0.551423  7.599680  2.727906
  C    -0.551918  3.361800  2.270981
  C    -0.603403  6.942029  2.247369
  N     1.679107  4.055843  1.889945
  N     1.467734  7.799697  1.787337
  N    -0.509215  3.328677  0.965484
  N    -0.527800  6.606431  0.947894
  N    -1.012724  3.562511  4.746047
  N    -0.932838  7.281261  4.806173
  S    -1.871753  3.235846  3.422115
  S    -1.785705  6.636454  3.513863
  S     0.991161  3.682780  0.448965
  S     0.971794  7.178821  0.368105
  S     0.650326  3.855580  4.562544
  S     0.464687  8.111153  4.346422
