16  
    
  C    -0.281782  3.100330  2.646253
  C    -0.312503  7.029324  2.387629
  C    -1.525756  2.735064  2.065287
  C    -1.323795  6.248495  1.905654
  N     0.585608  3.511250  1.705159
  N     0.689903  7.226064  1.533494
  N    -1.500838  2.470943  0.758792
  N    -1.206044  5.916488  0.626222
  N    -1.923123  2.894286  4.592988
  N    -1.967349  6.779078  4.268280
  S    -2.806890  2.516856  3.207148
  S    -2.615030  5.901415  2.968403
  S     0.035670  2.897716  0.253586
  S     0.181416  6.620062  0.120169
  S    -0.345733  3.322866  4.422647
  S    -0.444082  7.394666  4.071812
