16  
    
  C     0.211686  3.528493  2.305392
  C     0.248435  7.516922  2.898698
  C    -1.107741  3.312480  1.713493
  C    -0.864315  6.784526  2.240135
  N     1.199435  3.595553  1.434752
  N     1.278277  7.742844  2.059792
  N    -1.074835  3.206978  0.411616
  N    -0.639032  6.346809  0.999956
  N    -1.586062  3.316621  4.255953
  N    -1.525349  7.193411  4.662762
  S    -2.408676  2.999490  2.816351
  S    -2.218948  6.598353  3.268597
  S     0.430528  3.534030 -0.071332
  S     0.818324  6.951796  0.660121
  S     0.085902  3.544151  4.054908
  S    -0.002363  7.910041  4.549185
