16  
    
  C     2.944884  5.228718  3.651493
  C     2.872676  8.679614  3.448991
  C     1.694594  5.135375  2.912606
  C     1.719566  8.328540  2.677083
  N     4.011299  5.326057  2.865735
  N     4.029075  8.888386  2.821705
  N     1.844700  4.773430  1.641647
  N     2.044461  8.251844  1.347717
  N     1.121187  4.764155  5.349744
  N     1.035997  8.733233  5.171447
  S     0.363407  4.903043  3.907235
  S     0.364314  8.126526  3.823001
  S     3.427085  5.089406  1.332196
  S     3.686936  8.483525  1.290403
  S     2.729945  5.287732  5.362488
  S     2.683634  8.863666  5.167169
