16  
    
  C    -0.298925  3.146262  2.583065
  C    -0.182272  7.000776  2.354970
  C    -1.498670  2.674021  2.079111
  C    -1.298835  6.313690  1.765455
  N     0.691213  3.293210  1.730238
  N     0.722017  7.382330  1.467855
  N    -1.441769  2.432384  0.772670
  N    -1.133404  6.050695  0.473450
  N    -1.863269  2.915325  4.596395
  N    -1.973334  6.635363  4.255104
  S    -2.777596  2.434298  3.294707
  S    -2.603316  5.932645  2.876251
  S     0.050206  3.000331  0.260685
  S     0.326855  6.717086  0.015766
  S    -0.322138  3.309884  4.285588
  S    -0.450032  7.244678  4.119928
