16  
    
  C     1.070672  4.347312  2.937207
  C     1.671072  8.544020  2.970164
  C    -0.047439  3.923693  2.147784
  C     0.443078  8.143464  2.366867
  N     2.107748  4.793668  2.248998
  N     2.660365  8.629136  2.109109
  N     0.160397  3.768201  0.844145
  N     0.546103  7.831181  1.084527
  N    -0.720592  3.899855  4.666852
  N    -0.043905  8.394797  4.810386
  S    -1.422318  3.577014  3.187686
  S    -0.860015  8.049816  3.417419
  S     1.782735  4.304818  0.638306
  S     2.109584  8.240113  0.611308
  S     0.806453  4.350702  4.702230
  S     1.536934  8.898212  4.652490
