16  
    
  C    -3.527210  1.832873  1.815975
  C    -3.615966  5.730863  1.775117
  C    -4.548266  0.901902  1.256389
  C    -4.842512  5.349006  1.115230
  N    -2.518591  2.156204  1.002596
  N    -2.557561  5.876486  0.958273
  N    -4.381077  0.646052 -0.065832
  N    -4.726882  5.273785 -0.200172
  N    -5.303851  1.523860  3.613178
  N    -5.391389  5.147237  3.561527
  S    -5.917745  0.734695  2.306403
  S    -6.180749  4.937376  2.147035
  S    -2.976096  1.423559 -0.481771
  S    -3.176796  5.639374 -0.570879
  S    -3.802555  2.133962  3.447591
  S    -3.768440  5.719046  3.532224
