16  
    
  C    -2.655259  2.219831  2.038417
  C    -2.578197  5.820477  2.080116
  C    -3.888945  1.865142  1.308519
  C    -3.793647  5.409785  1.424178
  N    -1.628892  2.220572  1.204819
  N    -1.441360  5.823921  1.396018
  N    -3.805393  1.894677 -0.016681
  N    -3.536919  5.030892  0.158612
  N    -4.517102  1.928679  3.826561
  N    -4.451574  5.759787  3.865803
  S    -5.272277  1.830645  2.324769
  S    -5.218508  5.287885  2.409621
  S    -2.189399  2.107873 -0.365128
  S    -2.001609  5.398958 -0.184117
  S    -2.917303  2.454876  3.744224
  S    -2.825016  6.185776  3.743172
