16  
    
  C    -1.925587  2.416309  2.567981
  C    -1.696232  5.840746  2.316868
  C    -3.111268  1.938272  1.881682
  C    -2.939562  5.773135  1.593229
  N    -0.858185  2.641473  1.794118
  N    -0.541772  5.862196  1.564880
  N    -2.968868  1.977343  0.562124
  N    -2.739465  5.697731  0.278463
  N    -3.701020  2.111186  4.397175
  N    -3.612801  5.537152  4.138009
  S    -4.452822  1.979435  2.937307
  S    -4.323280  5.335723  2.661533
  S    -1.430402  2.465297  0.226222
  S    -1.115049  5.886114  0.035988
  S    -2.084891  2.434840  4.315504
  S    -1.979532  5.861531  4.009578
