16  
    
  C     1.382154  4.604840  3.341250
  C     1.450420  8.034946  3.117444
  C     0.112915  4.141800  2.944104
  C     0.167895  7.840052  2.432311
  N     2.296304  4.662599  2.395253
  N     2.507866  7.953888  2.320030
  N    -0.008116  3.915390  1.648925
  N     0.267154  7.729711  1.109308
  N    -0.102795  4.528833  5.463548
  N    -0.395565  7.995890  4.920811
  S    -1.142651  4.125586  4.168384
  S    -1.236590  7.822841  3.481768
  S     1.507160  4.307098  0.935667
  S     1.943185  7.677193  0.822242
  S     1.537071  4.683544  5.039272
  S     1.262734  8.121439  4.820900
