16  
    
  C    -0.429074  3.442888  2.640545
  C    -0.238086  6.988480  2.500504
  C    -1.413717  2.497185  2.098004
  C    -1.380600  6.575517  1.817635
  N     0.729890  3.535634  1.941972
  N     0.843100  7.199955  1.719444
  N    -1.095627  2.123815  0.856192
  N    -1.169310  6.325792  0.529872
  N    -2.225160  3.082116  4.463162
  N    -2.245281  6.911725  4.220977
  S    -2.810245  2.291144  3.117223
  S    -2.848379  6.507689  2.738778
  S     0.358643  2.808462  0.475534
  S     0.396863  6.647918  0.211655
  S    -0.708699  3.743961  4.327833
  S    -0.665679  7.410904  4.228201
