16  
    
  C    -1.215508  3.300162  2.158096
  C    -1.091561  7.048716  2.632870
  C    -2.449683  2.790786  1.632388
  C    -2.367154  6.777723  1.985270
  N    -0.371465  3.690287  1.209116
  N    -0.086389  7.027320  1.764879
  N    -2.433500  2.564123  0.303650
  N    -2.327309  6.783150  0.642066
  N    -2.682795  2.924786  4.183614
  N    -2.798365  6.716854  4.525563
  S    -3.633979  2.543404  2.905015
  S    -3.695844  6.567458  3.082006
  S    -0.934128  3.069612 -0.223694
  S    -0.686666  6.913065  0.185945
  S    -1.112245  3.339921  3.897482
  S    -1.198892  7.104586  4.349813
