16  
    
  C    -0.333973  3.210743  2.572468
  C    -0.207205  6.995770  2.339308
  C    -1.519360  2.617886  2.079716
  C    -1.300414  6.331335  1.786973
  N     0.699353  3.307581  1.734111
  N     0.761286  7.389919  1.495296
  N    -1.453264  2.443944  0.761203
  N    -1.157655  5.992618  0.498803
  N    -1.900903  2.911691  4.612150
  N    -1.991111  6.657552  4.236048
  S    -2.775446  2.458914  3.285391
  S    -2.600417  5.919029  2.881965
  S     0.042016  2.989972  0.257296
  S     0.285694  6.694203  0.031491
  S    -0.303581  3.297221  4.304339
  S    -0.440861  7.275907  4.123260
