16  
    
  C     1.009691  4.240605  2.588618
  C     1.122529  7.911296  3.165222
  C    -0.011609  3.471694  1.970101
  C    -0.100148  7.580932  2.548659
  N     2.095537  4.341067  1.843537
  N     2.134437  8.072966  2.324627
  N     0.169408  3.117815  0.686643
  N     0.050633  7.296089  1.267196
  N    -0.882212  4.161367  4.298850
  N    -0.514601  7.868490  5.031455
  S    -1.419021  3.217444  2.983784
  S    -1.410062  7.564340  3.652522
  S     1.719636  3.565160  0.357798
  S     1.651353  7.619828  0.809157
  S     0.680615  4.626751  4.327997
  S     1.079360  8.135048  4.861915
