16  
    
  C    -4.443105  1.322966  1.891524
  C    -4.669691  4.757104  1.657465
  C    -5.648980  0.899233  1.251447
  C    -5.802974  4.376725  0.829356
  N    -3.511872  1.767356  1.039441
  N    -3.629445  5.203945  0.962521
  N    -5.506815  0.756855 -0.039827
  N    -5.556371  4.520324 -0.459026
  N    -6.098720  0.782950  3.781151
  N    -6.481693  3.884401  3.317523
  S    -6.836821  0.264249  2.451530
  S    -7.141670  3.752775  1.793342
  S    -4.013510  1.360233 -0.545344
  S    -3.937612  5.039366 -0.693890
  S    -4.508488  1.180898  3.715507
  S    -4.973826  4.597177  3.366380
