16  
    
  C    -1.167954  3.051840  2.266544
  C    -0.960004  6.781905  2.479266
  C    -2.423268  2.727365  1.688375
  C    -2.290626  6.509954  1.883475
  N    -0.230694  3.105423  1.327410
  N     0.001711  7.105801  1.612515
  N    -2.536558  2.780233  0.355989
  N    -2.300016  6.607176  0.579342
  N    -2.807352  3.060812  4.226896
  N    -2.693563  6.833311  4.348450
  S    -3.728070  2.712701  2.884905
  S    -3.611094  6.551770  3.019305
  S    -0.966263  2.950763 -0.166015
  S    -0.772771  6.927605  0.131475
  S    -1.190572  3.323558  3.996114
  S    -1.031532  7.068378  4.204792
