16  
    
  C    -0.724344  3.024568  2.669661
  C    -1.315412  6.508587  2.547453
  C    -1.958767  2.673359  2.077562
  C    -2.408578  5.940184  1.861775
  N     0.296469  3.306682  1.865769
  N    -0.310653  6.943394  1.778330
  N    -1.761136  2.283494  0.813225
  N    -2.256647  5.941330  0.528548
  N    -2.528359  3.067042  4.633603
  N    -3.167228  6.072258  4.340789
  S    -3.318829  2.742868  3.153152
  S    -3.762410  5.581307  2.904069
  S    -0.181350  2.629382  0.426929
  S    -0.706597  6.524288  0.189971
  S    -0.836328  3.345384  4.385472
  S    -1.635645  6.594375  4.334640
