16  
    
  C     3.046573  5.148188  3.401648
  C     3.414579  9.015949  3.584763
  C     2.027161  4.356181  2.759041
  C     2.113980  8.672628  3.014433
  N     4.057403  5.478651  2.617548
  N     4.396013  9.002817  2.663707
  N     2.148498  4.349492  1.397154
  N     2.055227  8.429151  1.697279
  N     1.156463  5.069736  5.080958
  N     1.604282  8.836124  5.421437
  S     0.596489  4.141218  3.814027
  S     0.721486  8.593981  4.072934
  S     3.716672  4.995273  1.050424
  S     3.606339  8.777597  1.132999
  S     2.779342  5.385835  5.137917
  S     3.161977  9.294382  5.311613
