16  
    
  C     2.039426  4.456663  2.968343
  C     2.071368  8.014345  3.195230
  C     0.806333  3.973415  2.382016
  C     0.887526  7.567374  2.480996
  N     3.129428  4.497977  2.203599
  N     3.155172  8.053278  2.417284
  N     1.038190  3.625660  1.118623
  N     1.122290  7.352729  1.215948
  N     0.344175  4.435882  4.856406
  N     0.040681  8.117902  4.795605
  S    -0.533163  3.934057  3.525458
  S    -0.521360  7.439698  3.424796
  S     2.592959  4.004958  0.698688
  S     2.653045  7.663184  0.864028
  S     1.902682  4.788959  4.709256
  S     1.691802  8.324158  4.895594
