16  
    
  C    -0.060777  3.736673  2.445791
  C     0.366363  7.488792  2.743970
  C    -1.156174  2.952226  1.918822
  C    -0.813481  7.013219  2.069960
  N     0.987505  3.878543  1.621678
  N     1.420838  7.594663  1.939752
  N    -1.032848  2.657808  0.634344
  N    -0.687981  6.747343  0.751725
  N    -1.761485  3.479875  4.358575
  N    -1.492090  7.281808  4.621431
  S    -2.558356  2.870613  3.078351
  S    -2.181611  6.791657  3.210052
  S     0.465046  3.180159  0.208745
  S     0.825775  7.225516  0.335552
  S    -0.198793  4.038539  4.111359
  S     0.149025  7.703868  4.504496
