16  
    
  C    -2.420801  2.402820  1.961168
  C    -2.434029  6.298412  2.111765
  C    -3.689927  2.020203  1.414520
  C    -3.557521  5.626942  1.433414
  N    -1.400666  2.532532  1.102676
  N    -1.334303  6.367418  1.359884
  N    -3.654131  1.872400  0.098881
  N    -3.272143  5.153880  0.230909
  N    -4.053034  2.415568  3.968811
  N    -4.188759  5.817988  3.971836
  S    -4.940169  2.017741  2.595508
  S    -4.883076  5.437366  2.512578
  S    -2.088287  2.172500 -0.406308
  S    -1.722231  5.671379 -0.045879
  S    -2.475835  2.928020  3.642462
  S    -2.590252  6.261088  3.829537
