16  
    
  C     1.995054  4.382021  2.996824
  C     2.021686  7.867034  3.160377
  C     0.753063  3.959807  2.433477
  C     0.812985  7.526187  2.395947
  N     3.071100  4.332339  2.179507
  N     3.134015  8.045056  2.458269
  N     0.812778  3.762608  1.107449
  N     1.030859  7.495113  1.098755
  N     0.251858  4.278798  4.983264
  N     0.109217  7.868896  4.928612
  S    -0.511404  3.949420  3.536081
  S    -0.560256  7.372716  3.445798
  S     2.425632  3.948696  0.731079
  S     2.689217  7.783112  0.867318
  S     1.893066  4.803766  4.740487
  S     1.740518  8.252343  4.826347
