16  
    
  C     1.901520  5.026344  3.120393
  C     2.223030  8.652100  3.214420
  C     0.770628  4.543568  2.342899
  C     1.035659  8.132082  2.545928
  N     2.947950  5.446203  2.382022
  N     3.215330  8.966350  2.383316
  N     1.080776  4.236680  1.063223
  N     1.163137  7.905555  1.251700
  N    -0.031297  4.822273  4.849629
  N     0.448043  8.085511  5.055656
  S    -0.578354  4.081518  3.351674
  S    -0.296206  7.741296  3.571641
  S     2.676683  4.799492  0.852521
  S     2.695602  8.514453  0.860084
  S     1.655803  5.280423  4.845770
  S     2.069292  8.505893  4.978579
