16  
    
  C     3.025279  4.957454  3.236731
  C     3.024566  9.266369  3.783718
  C     1.785935  4.531783  2.638463
  C     1.844472  8.688338  3.098366
  N     3.933067  5.320973  2.332630
  N     4.030139  9.421433  2.939849
  N     1.846483  4.348044  1.313071
  N     1.998461  8.354010  1.871435
  N     1.150025  5.012362  5.082016
  N     1.116753  8.671492  5.469236
  S     0.465348  4.292397  3.769754
  S     0.483886  8.216773  4.023892
  S     3.356271  4.788960  0.841362
  S     3.447965  8.972582  1.369553
  S     2.766155  5.437484  4.891627
  S     2.581112  9.440046  5.491522
