16  
    
  C    -0.700931  2.898588  2.585691
  C    -1.298850  6.522474  2.456528
  C    -1.929797  2.538798  1.936751
  C    -2.435769  5.998537  1.767277
  N     0.325895  3.068550  1.770670
  N    -0.238895  6.858016  1.729987
  N    -1.872558  2.458683  0.631725
  N    -2.170036  5.738205  0.484787
  N    -2.570371  2.902893  4.427149
  N    -2.958686  5.930555  4.335639
  S    -3.349174  2.450342  2.994073
  S    -3.711541  5.617054  2.926347
  S    -0.265517  2.677174  0.223990
  S    -0.653059  6.339043  0.232760
  S    -0.918966  3.290412  4.261224
  S    -1.423090  6.550173  4.225318
