16  
    
  C    -5.857587  0.846427  1.547451
  C    -6.078785  4.490288  1.678734
  C    -6.992959  0.154985  0.999107
  C    -7.255466  4.084331  0.934986
  N    -4.880652  1.177350  0.705293
  N    -5.046866  4.656960  0.883052
  N    -6.879991  0.094828 -0.315285
  N    -7.096206  4.089236 -0.376822
  N    -7.605465  0.498763  3.417521
  N    -7.869732  4.075330  3.363528
  S    -8.295457 -0.077539  2.073317
  S    -8.647623  3.991803  1.865473
  S    -5.450716  0.813101 -0.816678
  S    -5.492744  4.459982 -0.694555
  S    -6.051626  1.046399  3.263855
  S    -6.305462  4.727425  3.388389
