16  
    
  C     3.144273  5.082983  3.431011
  C     3.224035  8.918042  3.793483
  C     1.862286  4.908948  2.791143
  C     1.884424  8.695798  3.293429
  N     4.171599  5.167236  2.590763
  N     4.100976  8.664567  2.777184
  N     1.925457  4.605215  1.496303
  N     1.724217  8.261381  2.054365
  N     1.313860  5.018859  5.244939
  N     1.607870  9.386051  5.721362
  S     0.578150  4.531038  3.854607
  S     0.643028  8.844075  4.498736
  S     3.519281  4.703392  1.081437
  S     3.219610  8.218258  1.427879
  S     2.970212  5.212842  5.126814
  S     3.228855  9.435861  5.466071
