16  
    
  C    -0.333879  3.334782  2.632650
  C    -0.302096  7.066003  2.415318
  C    -1.526643  2.707092  2.052457
  C    -1.478714  6.680564  1.686402
  N     0.696244  3.324585  1.804554
  N     0.766998  7.222614  1.670378
  N    -1.404173  2.505190  0.747911
  N    -1.299159  6.566656  0.371187
  N    -2.184195  3.196960  4.499414
  N    -2.081006  6.790508  4.134901
  S    -2.829447  2.439443  3.138189
  S    -2.880260  6.574010  2.691247
  S     0.171849  2.843987  0.325776
  S     0.365578  6.774875  0.156521
  S    -0.575607  3.717746  4.252029
  S    -0.480768  7.257193  4.095477
