16  
    
  C     0.423513  3.739928  2.988698
  C     0.445463  7.564891  2.894225
  C    -0.837435  3.578967  2.377280
  C    -0.823682  7.259661  2.325125
  N     1.438204  3.814018  2.116688
  N     1.435733  7.549627  2.033179
  N    -0.884591  3.685572  1.055427
  N    -0.839383  7.139733  1.020557
  N    -1.173899  3.072103  4.877941
  N    -1.259907  7.576983  4.810226
  S    -2.106177  3.234457  3.551716
  S    -2.105040  7.143659  3.468334
  S     0.783934  3.952484  0.609766
  S     0.846685  7.293181  0.525207
  S     0.492013  3.323324  4.655327
  S     0.368407  7.840337  4.645595
