16  
    
  C    -5.203693  1.240753  1.753708
  C    -5.086551  5.042147  1.407047
  C    -6.301296  0.558936  1.133845
  C    -6.201760  4.440043  0.738423
  N    -4.124405  1.373019  0.966212
  N    -4.001134  5.091680  0.650080
  N    -6.110745  0.263327 -0.143239
  N    -6.015559  4.189564 -0.543269
  N    -6.941418  0.965870  3.624723
  N    -6.877419  4.589179  3.208060
  S    -7.614630  0.355509  2.248373
  S    -7.542586  4.054185  1.773536
  S    -4.576689  0.668640 -0.465020
  S    -4.409074  4.457286 -0.838281
  S    -5.376504  1.372601  3.529803
  S    -5.389603  5.257280  3.113680
