16  
    
  C    -1.983180  2.247499  2.017652
  C    -2.050056  5.843728  2.188984
  C    -3.244257  2.009055  1.349002
  C    -3.356364  5.563808  1.546560
  N    -0.985822  2.392822  1.159171
  N    -1.015944  5.929263  1.347944
  N    -3.157012  1.749828  0.047549
  N    -3.247939  5.644923  0.242658
  N    -3.798677  2.384238  3.825574
  N    -3.744389  5.741606  4.098688
  S    -4.572201  1.813781  2.478235
  S    -4.652866  5.496517  2.717942
  S    -1.581652  2.135710 -0.343127
  S    -1.615776  5.675268 -0.217741
  S    -2.144905  2.489485  3.746599
  S    -2.124903  6.086228  3.866586
