16  
    
  C    -1.176630  2.950287  2.307316
  C    -0.956165  7.075566  2.354838
  C    -2.455318  2.936972  1.695496
  C    -2.227546  6.650021  1.821897
  N    -0.195894  2.972858  1.421494
  N     0.024005  7.088860  1.479902
  N    -2.466558  2.711078  0.385445
  N    -2.221233  6.392312  0.522582
  N    -2.875905  3.172118  4.221114
  N    -2.573152  6.633759  4.456098
  S    -3.786129  2.769961  2.893614
  S    -3.438818  6.561887  3.014904
  S    -0.888624  2.848062 -0.056025
  S    -0.661744  6.808648 -0.056719
  S    -1.249591  3.276148  3.977311
  S    -0.956155  6.961343  4.155186
