16  
    
  C    -3.406123  1.509055  2.118430
  C    -3.262374  5.468523  2.030187
  C    -4.635300  1.214913  1.476963
  C    -4.481700  5.061065  1.402835
  N    -2.319227  1.555638  1.349044
  N    -2.186261  5.447442  1.254339
  N    -4.549728  0.952750  0.182536
  N    -4.345878  4.809465  0.067360
  N    -5.267127  1.471721  3.920048
  N    -4.952732  5.324656  3.977045
  S    -6.021047  1.183053  2.484597
  S    -5.798229  4.955204  2.583049
  S    -2.942028  1.106409 -0.171368
  S    -2.773689  5.078601 -0.303128
  S    -3.653567  1.806234  3.795071
  S    -3.311161  5.681623  3.829672
