16  
    
  C    -2.625109  2.476864  2.256510
  C    -2.737070  6.477626  1.936501
  C    -3.824205  1.848750  1.681241
  C    -3.780663  5.835147  1.219399
  N    -1.697878  2.887482  1.376662
  N    -1.629363  6.664815  1.218873
  N    -3.692151  1.652915  0.377719
  N    -3.499958  5.489898  0.001800
  N    -4.378568  2.284062  4.117563
  N    -4.525828  5.925212  3.715390
  S    -5.151301  1.699304  2.777990
  S    -5.063172  5.379916  2.266079
  S    -2.275219  2.365649 -0.113487
  S    -1.946612  6.182039 -0.300460
  S    -2.840553  2.880057  3.946491
  S    -2.995229  6.456852  3.726140
