16  
    
  C     3.242246  5.003185  3.450358
  C     3.412070  9.055663  3.742687
  C     2.017401  4.571822  2.817782
  C     2.198151  8.831019  2.996989
  N     4.308891  5.051432  2.645164
  N     4.521843  9.163454  3.027288
  N     2.112292  4.549993  1.469794
  N     2.486184  8.700214  1.688767
  N     1.315048  5.161969  5.244023
  N     1.487464  9.143573  5.440011
  S     0.635896  4.711312  3.853560
  S     0.766856  8.814253  4.034091
  S     3.681698  4.788871  1.088026
  S     4.069760  8.942813  1.467027
  S     2.966367  5.216362  5.197768
  S     3.081661  9.221825  5.487763
