16  
    
  C    -1.679160  2.298976  1.947065
  C    -1.846324  6.517550  2.120674
  C    -2.981914  1.993395  1.303490
  C    -2.943923  5.832021  1.427998
  N    -0.716126  2.406591  1.054443
  N    -0.773942  6.564207  1.357801
  N    -2.964077  2.047351 -0.013950
  N    -2.632632  5.345622  0.251615
  N    -3.452565  2.364174  3.821164
  N    -3.533617  6.069533  4.007020
  S    -4.310747  1.804176  2.494208
  S    -4.280313  5.520016  2.623771
  S    -1.355961  2.242766 -0.443235
  S    -1.059933  5.920440 -0.188507
  S    -1.805760  2.455538  3.625003
  S    -2.128114  6.971531  3.744166
