16  
    
  C    -5.436542  1.149275  1.611588
  C    -5.210941  4.777728  1.425609
  C    -6.721865  0.880917  1.007632
  C    -6.459700  4.437716  0.868165
  N    -4.396966  1.058256  0.772726
  N    -4.176038  4.696605  0.596608
  N    -6.597223  0.713357 -0.322587
  N    -6.379144  4.059282 -0.417897
  N    -7.181476  1.089295  3.505104
  N    -6.841463  4.774965  3.409644
  S    -8.056044  0.862250  2.038016
  S    -7.740976  4.406116  2.047469
  S    -5.007170  0.853428 -0.726306
  S    -4.755156  4.140544 -0.850757
  S    -5.515985  1.279612  3.341851
  S    -5.239838  5.081615  3.109829
