16  
    
  C    -2.560745  2.300699  2.326535
  C    -2.713176  5.852653  2.039864
  C    -3.733331  1.865524  1.609053
  C    -3.913343  5.346926  1.327340
  N    -1.661711  2.810295  1.515040
  N    -1.647837  6.052793  1.297116
  N    -3.609077  1.805225  0.266762
  N    -3.719691  5.212102  0.022195
  N    -4.295622  1.978373  4.103841
  N    -4.495130  5.436229  3.907176
  S    -5.037693  1.560722  2.706104
  S    -5.208603  4.896013  2.533778
  S    -2.132338  2.476396 -0.053755
  S    -2.187966  5.726974 -0.305107
  S    -2.742164  2.439792  4.027445
  S    -2.862338  5.715450  3.769481
