16  
    
  C     1.128008  4.404864  3.003215
  C     1.719980  8.505964  2.938629
  C    -0.020516  3.929557  2.290159
  C     0.453204  8.132874  2.329904
  N     2.159565  4.714367  2.235987
  N     2.782819  8.409659  2.141465
  N     0.179207  3.886656  0.977855
  N     0.506090  7.934741  0.997259
  N    -0.758137  4.019164  4.797452
  N    -0.058071  8.369080  4.852542
  S    -1.388096  3.634884  3.308184
  S    -0.870044  8.034632  3.443379
  S     1.702176  4.365965  0.718684
  S     2.086047  8.092765  0.623019
  S     0.909265  4.383265  4.715328
  S     1.536613  8.788952  4.685446
