16  
    
  C     2.202301  4.408439  3.025067
  C     2.028990  8.278674  3.122822
  C     1.026883  3.934608  2.266765
  C     0.838971  7.609974  2.597822
  N     3.385175  4.383673  2.390343
  N     3.086374  8.231371  2.330241
  N     1.315711  3.875952  0.961889
  N     0.972511  7.112434  1.384517
  N     0.238407  4.404533  4.665083
  N     0.106309  8.347977  4.913586
  S    -0.385382  3.888547  3.284496
  S    -0.531289  7.546953  3.566931
  S     2.974209  4.021086  0.839046
  S     2.549453  7.418598  0.927791
  S     1.852599  4.788003  4.738878
  S     1.629610  8.974059  4.733999
