16  
    
  C    -4.556747  1.039007  1.554958
  C    -4.824636  4.671082  1.634238
  C    -5.850155  0.883260  0.919311
  C    -6.079270  4.374748  0.906022
  N    -3.488983  1.218131  0.781480
  N    -3.781311  4.832276  0.837575
  N    -5.737299  0.855186 -0.413061
  N    -5.973072  4.391070 -0.431220
  N    -6.334369  0.727761  3.354097
  N    -6.611920  4.219556  3.382446
  S    -7.199416  0.580895  1.968673
  S    -7.404026  4.061723  1.929714
  S    -4.146655  1.011000 -0.725644
  S    -4.389099  4.735694 -0.695827
  S    -4.701204  0.935072  3.299933
  S    -4.946954  4.522243  3.372856
