16  
    
  C    -5.544996  0.877165  1.426528
  C    -5.371265  5.001647  1.179852
  C    -6.790799  0.426290  0.767402
  C    -6.539127  4.361662  0.677095
  N    -4.480920  1.102022  0.642272
  N    -4.386323  5.242690  0.338628
  N    -6.668466  0.245776 -0.523629
  N    -6.501098  4.146041 -0.627595
  N    -7.368439  0.889092  3.259801
  N    -6.796077  4.362658  3.261882
  S    -8.079205  0.172150  1.922904
  S    -7.714584  3.891136  1.970628
  S    -5.032125  0.613641 -0.904703
  S    -4.985606  4.649860 -1.111170
  S    -5.657622  1.018336  3.230207
  S    -5.324802  5.011520  2.906286
