16  
    
  C    -5.406238  1.157172  1.670529
  C    -5.166690  4.748908  1.432622
  C    -6.639717  0.953594  1.040671
  C    -6.432495  4.433530  0.797077
  N    -4.371945  1.099154  0.835910
  N    -4.158343  4.734771  0.574947
  N    -6.563628  0.770892 -0.273354
  N    -6.327148  4.069638 -0.466380
  N    -7.226567  1.014633  3.595602
  N    -6.957741  5.168438  3.150661
  S    -8.004170  0.710081  2.114090
  S    -7.743554  4.468035  1.833457
  S    -4.965346  0.735171 -0.650934
  S    -4.728582  4.285738 -0.916341
  S    -5.573007  1.268342  3.363203
  S    -5.281432  5.114690  3.126154
