16  
    
  C     3.421242  5.319019  3.519170
  C     3.663504  9.315466  3.455556
  C     2.161025  4.945739  2.906572
  C     2.472082  8.638604  2.904996
  N     4.375379  5.609628  2.665909
  N     4.638921  9.472962  2.621076
  N     2.218394  4.822958  1.572002
  N     2.522472  8.383747  1.634585
  N     1.609231  4.897120  5.483683
  N     1.892225  8.713131  5.328173
  S     0.904204  4.557110  4.044176
  S     1.230911  8.125320  3.916970
  S     3.778589  5.139563  1.112401
  S     3.975963  8.996396  1.096825
  S     3.227567  5.353327  5.322711
  S     3.406149  9.416889  5.208604
