16  
    
  C    -0.486009  3.310190  2.947644
  C    -1.095429  6.812803  2.718594
  C    -1.664426  2.925195  2.242867
  C    -2.123473  6.254343  1.948870
  N     0.594769  3.376035  2.161542
  N     0.092598  6.997100  2.132882
  N    -1.508650  2.592416  0.960378
  N    -1.791445  6.119897  0.677159
  N    -2.335761  3.422020  4.760589
  N    -3.002452  6.290192  4.233856
  S    -3.003722  2.743333  3.359583
  S    -3.644155  5.978020  2.707627
  S     0.083192  3.052661  0.629944
  S    -0.222174  6.611160  0.572599
  S    -0.678487  3.767737  4.584978
  S    -1.471505  6.885584  4.381258
