16  
    
  C     1.643274  4.424199  3.462753
  C     1.422202  7.967361  3.059165
  C     0.326477  4.314116  2.881432
  C     0.207738  7.446485  2.362482
  N     2.604272  4.357229  2.516227
  N     2.423680  8.365998  2.263996
  N     0.311628  3.911599  1.616927
  N     0.316923  7.381790  1.035319
  N    -0.023597  4.651485  5.343499
  N    -0.379363  7.689370  4.887941
  S    -0.984775  4.219580  4.067871
  S    -1.138020  7.192754  3.502590
  S     1.908385  4.048531  1.073639
  S     1.885312  7.958480  0.774514
  S     1.587376  4.874391  5.111287
  S     1.191879  8.219568  4.757847
