16  
    
  C    -4.442638  1.361744  1.951594
  C    -4.627349  4.862219  1.708513
  C    -5.604621  0.789204  1.337621
  C    -5.706899  4.308910  0.920769
  N    -3.546211  1.802845  1.088977
  N    -3.556682  5.212166  1.038836
  N    -5.543223  0.740997  0.000566
  N    -5.485722  4.349963 -0.380882
  N    -5.981734  0.868252  3.827530
  N    -6.357720  4.004339  3.276619
  S    -6.773425  0.343174  2.466422
  S    -7.034544  3.782261  1.794022
  S    -4.150478  1.417552 -0.385499
  S    -3.992390  5.058970 -0.566643
  S    -4.406570  1.424006  3.633652
  S    -4.922219  4.762346  3.349048
