16  
    
  C     0.572478  3.711437  2.948023
  C     0.596567  7.530607  2.838622
  C    -0.802971  3.519796  2.420874
  C    -0.577285  7.119154  2.037757
  N     1.539975  3.853543  2.040729
  N     1.754735  7.662607  2.189521
  N    -0.774676  3.404711  1.104584
  N    -0.247037  6.846145  0.769584
  N    -1.125532  3.647245  4.928918
  N    -1.386358  7.270993  4.533757
  S    -2.023089  3.288663  3.612618
  S    -2.036346  6.952505  3.004377
  S     0.810931  3.467169  0.556398
  S     1.335266  7.259751  0.651813
  S     0.507464  4.004875  4.660794
  S     0.274510  7.698853  4.552889
