16  
    
  C    -1.460987  2.595177  2.281973
  C    -1.382037  6.701178  2.163034
  C    -2.560857  1.970813  1.561401
  C    -2.640881  6.154637  1.643192
  N    -0.489347  2.999628  1.458103
  N    -0.322117  6.742431  1.356492
  N    -2.280543  1.687275  0.288550
  N    -2.545878  5.821982  0.380528
  N    -3.408996  2.462585  3.920298
  N    -2.959015  6.256328  4.169050
  S    -3.924208  1.726048  2.538080
  S    -3.911341  6.137872  2.819263
  S    -0.809284  2.340908 -0.034906
  S    -1.009869  6.241273 -0.073768
  S    -1.856458  3.020297  3.917691
  S    -1.432958  6.847852  3.874207
