16  
    
  C    -6.134466  0.948145  1.450159
  C    -6.146039  4.466613  1.903622
  C    -7.280948  0.298697  0.904017
  C    -7.308442  4.047270  1.100865
  N    -5.284263  1.310613  0.478228
  N    -5.083949  4.700383  1.097448
  N    -7.235181  0.121237 -0.424542
  N    -7.098471  3.991947 -0.221670
  N    -7.548233  0.189967  3.476701
  N    -8.063349  4.158574  3.507996
  S    -8.331259 -0.408880  2.106161
  S    -8.635773  3.604987  2.009584
  S    -5.836283  0.822182 -0.973148
  S    -5.519024  4.366525 -0.457993
  S    -6.051582  0.966050  3.161662
  S    -6.421027  4.403610  3.590549
