16  
    
  C     2.152836  4.461715  3.036805
  C     2.068858  8.136248  3.176518
  C     0.971818  3.942847  2.394700
  C     0.877088  7.580299  2.481075
  N     3.146154  4.692909  2.208443
  N     3.154625  8.185556  2.402782
  N     1.095153  3.608386  1.118023
  N     1.065513  7.131250  1.254540
  N     0.219289  4.476955  4.847678
  N     0.041023  8.247429  4.835085
  S    -0.444533  3.963989  3.401601
  S    -0.567556  7.505274  3.425954
  S     2.719894  4.007749  0.730378
  S     2.670945  7.555161  0.919960
  S     1.901153  4.778582  4.678806
  S     1.711063  8.425498  4.872302
