16  
    
  C     2.608112  4.946019  3.588688
  C     2.260225  8.847013  3.381936
  C     1.361864  4.448247  3.057847
  C     1.253538  7.983799  2.794428
  N     3.572909  5.285222  2.704712
  N     3.305605  9.130790  2.594252
  N     1.486041  4.116213  1.758005
  N     1.588513  7.497441  1.633536
  N     0.995040  4.929120  5.595023
  N     0.482999  8.193904  5.254696
  S     0.202624  4.194078  4.356491
  S    -0.076986  7.595931  3.776863
  S     3.012453  4.594516  1.294713
  S     2.937000  8.284922  1.198602
  S     2.495105  5.402094  5.282383
  S     1.886598  9.092332  5.103051
