16  
    
  C     1.946879  4.466292  3.361313
  C     1.685269  7.678365  3.068439
  C     0.808758  3.954660  2.687225
  C     0.447967  7.449710  2.391124
  N     2.922638  4.808804  2.572395
  N     2.715276  7.892210  2.238687
  N     0.833807  3.977028  1.371852
  N     0.519833  7.397664  1.061251
  N     0.302203  4.007073  5.262337
  N    -0.180974  7.511501  4.873646
  S    -0.532934  3.705573  3.798767
  S    -0.939303  7.366893  3.375464
  S     2.404849  4.623074  0.973925
  S     2.090919  7.797605  0.710998
  S     1.913182  4.407744  5.056577
  S     1.490181  7.650687  4.806737
