16  
    
  C     0.838952  4.143087  2.475909
  C     1.556659  8.293256  3.217822
  C    -0.296932  3.437323  1.884878
  C     0.254336  8.150621  2.543025
  N     1.823974  4.292817  1.613329
  N     2.593171  8.472639  2.379945
  N    -0.082319  3.152914  0.598522
  N     0.268591  8.119793  1.203853
  N    -0.862383  3.793888  4.338942
  N    -0.234742  8.204097  5.083581
  S    -1.598049  3.121654  3.004287
  S    -1.078174  7.976204  3.668802
  S     1.416806  3.665599  0.183149
  S     1.868257  8.326747  0.879071
  S     0.691800  4.224799  4.210324
  S     1.435831  8.416847  4.940986
