16  
    
  C     1.046199  4.442105  2.848326
  C     1.632578  8.657825  2.933268
  C    -0.010263  3.842449  2.122868
  C     0.462382  8.039883  2.333753
  N     2.146892  4.645616  2.124578
  N     2.654716  8.902863  2.120086
  N     0.241734  3.680909  0.829086
  N     0.596246  7.850625  0.999359
  N    -0.879701  3.815989  4.565290
  N    -0.094344  8.450871  4.888705
  S    -1.499738  3.427342  3.046954
  S    -0.917739  8.077883  3.496937
  S     1.734129  4.254927  0.575330
  S     2.117951  8.332431  0.607082
  S     0.758160  4.338847  4.565154
  S     1.501438  8.907327  4.644096
