16  
    
  C     1.922767  4.063263  3.191872
  C     1.924553  7.976260  3.091174
  C     0.605077  4.035219  2.589132
  C     0.686026  7.497255  2.443458
  N     2.872748  4.380560  2.296061
  N     2.903170  8.319868  2.248577
  N     0.604681  3.864487  1.249597
  N     0.739195  7.402848  1.101032
  N     0.189133  4.296942  5.082457
  N     0.219536  7.477427  4.946146
  S    -0.741002  4.043233  3.726072
  S    -0.604041  7.107803  3.552524
  S     2.223419  4.045901  0.820679
  S     2.278454  8.016054  0.732498
  S     1.799759  4.276410  4.866918
  S     1.813494  7.850924  4.817013
