16  
    
  C    -4.383924  0.944094  1.812703
  C    -4.720720  4.569497  1.640336
  C    -5.657767  0.685659  1.173646
  C    -5.902232  4.307824  0.853399
  N    -3.436046  1.416914  1.001382
  N    -3.731680  5.027312  0.882406
  N    -5.555963  0.764871 -0.118172
  N    -5.782833  4.484492 -0.442000
  N    -6.151303  0.637620  3.571243
  N    -6.597787  4.226365  3.274143
  S    -7.034231  0.433942  2.212536
  S    -7.262308  3.844186  1.738025
  S    -4.115777  1.305097 -0.524710
  S    -4.210138  5.019193 -0.711858
  S    -4.570757  1.099108  3.490701
  S    -4.940687  4.465472  3.353476
