16  
    
  C    -3.538293  2.073278  1.663407
  C    -3.925617  5.265702  1.604964
  C    -4.698812  1.407917  1.040750
  C    -5.149428  4.696217  1.106096
  N    -2.581304  2.181780  0.730743
  N    -2.926652  5.431753  0.745527
  N    -4.649368  1.280850 -0.288337
  N    -5.107057  4.520987 -0.215232
  N    -5.175631  1.515252  3.578318
  N    -5.624790  5.007639  3.592319
  S    -5.940886  0.970630  2.209335
  S    -6.437070  4.437251  2.261921
  S    -3.126124  1.749013 -0.713933
  S    -3.549430  4.884020 -0.766560
  S    -3.668855  2.129720  3.344649
  S    -4.041178  5.575811  3.319631
