16  
    
  C    -1.536886  2.828910  2.016289
  C    -1.158583  6.780379  2.196566
  C    -2.597771  2.005212  1.398898
  C    -2.461316  6.403938  1.657008
  N    -0.505608  3.169449  1.262592
  N    -0.178140  6.820061  1.298250
  N    -2.331941  1.802371  0.122020
  N    -2.469859  6.245552  0.328730
  N    -3.364926  2.394163  3.864204
  N    -2.862724  6.841530  4.187496
  S    -3.881281  1.640920  2.475225
  S    -3.685003  6.309965  2.886743
  S    -0.825859  2.449236 -0.188816
  S    -0.902762  6.438074 -0.199681
  S    -1.875346  3.129884  3.732688
  S    -1.281104  7.112736  3.904256
