16  
    
  C    -0.397968  3.570487  2.893562
  C    -0.811748  6.924125  2.667007
  C    -1.533831  2.944192  2.291726
  C    -1.876004  6.374391  1.918051
  N     0.652460  3.804477  2.082675
  N     0.358222  7.026593  1.995208
  N    -1.384449  2.665150  1.000767
  N    -1.604244  6.126345  0.636241
  N    -2.205260  3.258293  4.762177
  N    -2.802555  6.507649  4.339878
  S    -2.921921  2.913282  3.287311
  S    -3.375442  6.036541  2.845589
  S     0.134401  3.166628  0.589924
  S    -0.076623  6.639815  0.417739
  S    -0.604845  3.730028  4.645877
  S    -1.233727  7.031918  4.441658
