16  
    
  C    -5.363548  1.154111  1.299547
  C    -5.471405  4.795387  1.576863
  C    -6.561386  0.654351  0.659002
  C    -6.741585  4.495860  0.914132
  N    -4.338791  1.476502  0.496945
  N    -4.422770  4.952134  0.747618
  N    -6.424670  0.419099 -0.650979
  N    -6.650935  4.312453 -0.424899
  N    -7.166125  0.841952  3.188173
  N    -7.234608  4.611750  3.514717
  S    -7.815120  0.078848  1.771026
  S    -8.028788  4.147897  2.098921
  S    -4.874497  0.985564 -1.030707
  S    -5.052238  4.611135 -0.780814
  S    -5.520677  1.214482  3.026866
  S    -5.601934  4.862870  3.355367
