16  
    
  C     1.435891  4.375017  3.387354
  C     1.413595  7.967021  3.108939
  C     0.109871  4.168709  2.895758
  C     0.139883  7.822632  2.401772
  N     2.380035  4.506691  2.443553
  N     2.487408  7.981010  2.320249
  N     0.057076  3.937470  1.577634
  N     0.273975  7.713115  1.086399
  N    -0.059874  4.647980  5.428581
  N    -0.460209  7.920713  4.930071
  S    -1.048866  4.163082  4.182647
  S    -1.166309  7.590821  3.481844
  S     1.576962  4.251468  1.065458
  S     1.871114  7.780551  0.751748
  S     1.540474  4.778216  5.119931
  S     1.185390  8.165836  4.869884
