16  
    
  C     2.200877  4.357167  3.016097
  C     2.101437  8.486905  3.125975
  C     0.998623  3.964776  2.213243
  C     0.971698  7.706179  2.635012
  N     3.233806  4.562142  2.217513
  N     3.051697  8.648622  2.186499
  N     1.235554  3.537283  0.968903
  N     1.083327  7.214985  1.413714
  N     0.344168  4.212309  4.775954
  N     0.246836  8.568414  4.897750
  S    -0.431166  3.901371  3.341591
  S    -0.433535  7.794837  3.602865
  S     2.795836  4.099532  0.692256
  S     2.586722  7.698637  0.847968
  S     2.003169  4.560582  4.728860
  S     1.790150  9.107356  4.733133
