16  
    
  C    -4.240877  1.711387  1.891994
  C    -4.296289  5.204980  1.754929
  C    -5.419395  1.148796  1.281971
  C    -5.586282  4.689369  1.175021
  N    -3.164721  1.692818  1.116325
  N    -3.321278  5.261757  0.858190
  N    -5.273627  0.676809  0.061144
  N    -5.516489  4.520934 -0.143999
  N    -6.055591  1.464298  3.771278
  N    -5.957699  5.074997  3.667436
  S    -6.805318  0.992995  2.325285
  S    -6.850974  4.661516  2.323655
  S    -3.621357  0.967568 -0.267325
  S    -3.958196  4.778192 -0.588709
  S    -4.531936  2.166761  3.503389
  S    -4.415670  5.644377  3.430179
