16  
    
  C    -0.351377  3.329506  2.696911
  C    -0.323266  7.015000  2.460003
  C    -1.464888  2.707965  2.063852
  C    -1.467474  6.377876  1.901701
  N     0.716961  3.531855  1.950304
  N     0.750021  7.206542  1.685022
  N    -1.181441  2.236288  0.866007
  N    -1.305643  6.000193  0.636747
  N    -2.267536  3.050437  4.423257
  N    -2.177845  7.021902  4.383460
  S    -2.799706  2.306850  3.089273
  S    -2.811183  6.206219  3.081990
  S     0.287590  2.877937  0.456748
  S     0.277570  6.451962  0.198536
  S    -0.748194  3.700100  4.423158
  S    -0.581930  7.485098  4.178658
