16  
    
  C    -2.570080  2.339229  2.241855
  C    -2.713958  5.726625  2.053687
  C    -3.772338  1.892775  1.569541
  C    -3.883093  5.215240  1.436359
  N    -1.572597  2.704242  1.445152
  N    -1.665842  6.064169  1.256426
  N    -3.627095  1.827252  0.267287
  N    -3.730590  5.218013  0.117854
  N    -4.257040  1.902153  4.092327
  N    -4.436763  5.344331  3.948983
  S    -5.061298  1.640744  2.664610
  S    -5.252990  4.913904  2.533033
  S    -2.058199  2.364256 -0.050886
  S    -2.182336  5.689894 -0.294473
  S    -2.671316  2.408727  3.981945
  S    -2.817275  5.716097  3.765587
