16  
    
  C    -1.749942  2.264788  1.987446
  C    -1.857894  6.174877  2.063085
  C    -3.018374  2.036783  1.262551
  C    -3.018959  5.704650  1.392550
  N    -0.686779  2.514258  1.210217
  N    -0.743810  6.264084  1.343073
  N    -2.788263  1.823483 -0.029370
  N    -2.831654  5.569455  0.096945
  N    -3.622805  1.962032  3.780517
  N    -3.613439  6.032203  3.996839
  S    -4.392955  1.938951  2.310177
  S    -4.321599  5.704823  2.562507
  S    -1.164618  2.095870 -0.332789
  S    -1.224049  5.931198 -0.252445
  S    -2.021694  2.389292  3.704802
  S    -2.001125  6.427779  3.846688
