16  
    
  C    -3.402392  1.759572  1.553699
  C    -3.749956  5.395828  1.656991
  C    -4.559657  1.122786  0.990022
  C    -4.950835  4.973903  1.038664
  N    -2.366747  1.812194  0.687112
  N    -2.762125  5.740334  0.868583
  N    -4.427561  0.894525 -0.321266
  N    -4.908086  4.876951 -0.286474
  N    -5.068390  1.445738  3.509747
  N    -5.510226  5.247098  3.538577
  S    -5.814162  0.922549  2.170654
  S    -6.276255  4.744748  2.150399
  S    -2.876026  1.323435 -0.765895
  S    -3.349795  5.326162 -0.724339
  S    -3.609481  2.143714  3.312720
  S    -3.940462  5.561710  3.363013
