16  
    
  C    -1.580396  3.266942  1.950793
  C    -1.057320  7.040227  2.431630
  C    -2.568568  2.372791  1.376564
  C    -2.314308  6.807477  1.845078
  N    -0.533738  3.571074  1.191287
  N    -0.069972  7.045739  1.538902
  N    -2.352141  2.144888  0.098118
  N    -2.282494  6.521356  0.558901
  N    -3.229202  2.684362  3.862030
  N    -2.588866  6.604351  4.274235
  S    -3.884548  2.039048  2.436708
  S    -3.575846  6.675585  2.971304
  S    -0.955056  2.993879 -0.321935
  S    -0.702427  6.749692  0.069134
  S    -1.730509  3.423425  3.693218
  S    -1.004633  7.114792  4.147486
