16  
    
  C     0.122128  3.561005  2.688446
  C     0.320285  7.514684  2.675646
  C    -1.124199  3.055690  2.014368
  C    -0.931796  7.242988  2.048566
  N     1.151658  3.813613  1.863265
  N     1.324477  7.584840  1.812572
  N    -0.863324  2.710829  0.746712
  N    -0.877953  7.142836  0.728465
  N    -1.781953  3.286772  4.475253
  N    -1.495873  7.204645  4.525056
  S    -2.343916  2.508291  3.104979
  S    -2.255139  7.143577  3.071987
  S     0.645632  3.288478  0.359103
  S     0.760201  7.422506  0.227215
  S    -0.245008  3.979967  4.327765
  S     0.131110  7.462474  4.445000
