16  
    
  C     0.456563  3.829234  3.001024
  C     0.438260  7.524093  2.942672
  C    -0.886224  3.570713  2.353385
  C    -0.825351  7.278260  2.294467
  N     1.427649  3.812541  2.106461
  N     1.436215  7.581688  2.068763
  N    -0.860201  3.678375  1.006376
  N    -0.758307  7.116655  0.967755
  N    -1.113061  3.133042  4.898736
  N    -1.264688  7.546936  4.846567
  S    -2.081453  3.266327  3.558214
  S    -2.114401  7.114758  3.452138
  S     0.750563  3.949995  0.623767
  S     0.916242  7.236758  0.505027
  S     0.493873  3.311748  4.663424
  S     0.332227  7.846231  4.617094
