16  
    
  C    -2.664102  2.621186  2.165556
  C    -2.568355  6.222508  2.069630
  C    -3.833963  1.915480  1.622243
  C    -3.646981  5.659225  1.285963
  N    -1.652031  2.800208  1.306610
  N    -1.533892  6.634900  1.321241
  N    -3.672266  1.672909  0.311512
  N    -3.442062  5.606521 -0.035740
  N    -4.397096  2.399000  4.127839
  N    -4.518716  6.098937  3.732495
  S    -5.155691  1.797146  2.745737
  S    -5.103174  5.351317  2.329621
  S    -2.213885  2.298984 -0.165157
  S    -1.907069  6.131770 -0.260632
  S    -2.789903  2.848726  3.853955
  S    -2.918922  6.606711  3.697548
