16  
    
  C     2.019472  4.502380  3.293140
  C     1.603184  7.669828  3.059266
  C     0.794149  4.128238  2.655145
  C     0.389739  7.406611  2.355127
  N     2.966323  4.969327  2.463698
  N     2.648533  7.940105  2.316824
  N     0.928876  3.904375  1.320313
  N     0.586572  7.448796  1.050010
  N     0.337797  4.012082  5.170325
  N    -0.203456  7.551252  4.818593
  S    -0.459954  3.688369  3.831735
  S    -0.988866  7.377144  3.384135
  S     2.375493  4.560264  0.949465
  S     2.157267  7.723508  0.724554
  S     1.900766  4.549282  5.059855
  S     1.414329  7.725018  4.772398
