16  
    
  C     0.925648  3.860547  2.503603
  C     1.524608  8.075552  3.299582
  C    -0.285977  3.454741  1.909346
  C     0.279033  7.873566  2.680804
  N     1.944647  4.016340  1.674179
  N     2.533455  8.144636  2.449339
  N    -0.239276  3.264213  0.569705
  N     0.279517  7.875592  1.360908
  N    -0.861712  3.551334  4.445242
  N    -0.184838  7.916214  5.179892
  S    -1.636007  3.189343  3.018658
  S    -1.057389  7.927663  3.768326
  S     1.329241  3.698464  0.153114
  S     1.924005  8.031848  0.948815
  S     0.728671  4.148587  4.221512
  S     1.483919  8.066763  4.993522
