16  
    
  C    -4.153806  1.574437  1.851209
  C    -3.914297  5.159236  1.893067
  C    -5.371873  1.063779  1.320258
  C    -5.048781  4.504692  1.371659
  N    -3.218110  1.697197  0.935708
  N    -2.848642  5.272390  1.080272
  N    -5.280158  0.614168  0.065633
  N    -4.908473  4.073891  0.132199
  N    -5.889708  1.739468  3.859549
  N    -5.737546  5.359094  3.758200
  S    -6.650615  0.952653  2.585284
  S    -6.495911  4.686774  2.488670
  S    -3.808152  1.047424 -0.489342
  S    -3.402643  4.628891 -0.433344
  S    -4.237970  1.904889  3.657260
  S    -4.140377  5.713051  3.595027
