16  
    
  C     0.869951  3.982307  2.564989
  C     1.544126  7.955103  3.315586
  C    -0.295733  3.411767  1.820651
  C     0.255684  7.875486  2.691877
  N     1.945324  4.052025  1.799645
  N     2.529534  7.915702  2.435148
  N    -0.238792  3.419085  0.497301
  N     0.313420  7.812144  1.372851
  N    -0.906070  3.597078  4.352901
  N    -0.235005  7.826289  5.209775
  S    -1.631720  3.175118  2.933211
  S    -1.063673  7.816887  3.764075
  S     1.429390  3.708435  0.238002
  S     1.914338  7.895981  0.842254
  S     0.758190  4.054024  4.280444
  S     1.449778  8.030767  5.064876
