16  
    
  C     0.925334  3.659490  3.062115
  C     1.151983  7.627332  3.001041
  C    -0.417092  3.471492  2.516982
  C    -0.041223  7.038919  2.371419
  N     1.907910  3.848014  2.113933
  N     2.189557  7.705645  2.161250
  N    -0.358156  3.193951  1.213940
  N     0.203324  6.734942  1.093252
  N    -0.811726  3.494933  5.008877
  N    -0.774268  7.688469  4.738935
  S    -1.701071  3.283065  3.654611
  S    -1.458143  7.002961  3.384726
  S     1.126897  3.534970  0.686955
  S     1.787272  7.091105  0.682210
  S     0.812551  3.970244  4.743743
  S     0.885524  7.953561  4.661296
