16  
    
  C     2.037863  5.034753  3.190524
  C     2.142020  8.620281  3.300196
  C     0.885119  4.574268  2.407275
  C     0.924075  8.230719  2.606655
  N     3.141981  5.233052  2.488295
  N     3.168980  8.847007  2.489298
  N     1.064129  4.453259  1.103822
  N     0.990799  8.171668  1.254618
  N     0.009299  4.683653  4.864683
  N     0.353546  8.106278  5.153221
  S    -0.542211  4.147274  3.368076
  S    -0.385699  7.808358  3.663853
  S     2.659053  4.911165  0.900826
  S     2.584163  8.576278  0.885565
  S     1.562476  5.268157  4.798116
  S     1.947358  8.643707  5.024537
