16  
    
  C     0.952095  3.813475  2.541996
  C     1.579172  8.016690  3.266148
  C    -0.324093  3.568373  1.900866
  C     0.246026  7.872408  2.658109
  N     1.938883  3.993248  1.652975
  N     2.624831  8.106332  2.425236
  N    -0.161997  3.281457  0.626067
  N     0.272792  7.864256  1.323478
  N    -0.814126  3.551718  4.436307
  N    -0.161693  7.876038  5.172035
  S    -1.638423  3.182011  3.006023
  S    -1.063657  7.898415  3.781895
  S     1.337987  3.715390  0.178525
  S     1.899425  7.985862  0.969136
  S     0.688623  4.106834  4.196540
  S     1.458995  8.051673  5.024656
