16  
    
  C    -2.913404  2.303471  1.885881
  C    -2.758228  5.974949  1.995933
  C    -4.063773  1.917054  1.136132
  C    -4.038733  5.500845  1.509858
  N    -1.878068  2.686435  1.131423
  N    -1.721092  5.978775  1.148976
  N    -3.861851  1.718761 -0.184025
  N    -3.958006  5.182453  0.193855
  N    -4.744741  1.828952  3.622830
  N    -4.503660  5.788252  3.922779
  S    -5.422920  1.467444  2.140497
  S    -5.331134  5.185334  2.553025
  S    -2.338465  2.225587 -0.442948
  S    -2.413595  5.572047 -0.284514
  S    -3.150454  2.335836  3.647845
  S    -2.932793  6.180506  3.736189
