16  
    
  C     3.225198  5.345938  3.447693
  C     3.655020  9.263684  3.389520
  C     2.025349  4.811173  2.874828
  C     2.421838  8.666144  2.857285
  N     4.255899  5.513072  2.669678
  N     4.563787  9.544316  2.514413
  N     2.165457  4.639025  1.561781
  N     2.495726  8.469980  1.570730
  N     1.601325  5.025100  5.372699
  N     1.980000  8.750316  5.356222
  S     0.757543  4.467320  3.989081
  S     1.258280  8.198191  3.962686
  S     3.719811  5.177577  1.180967
  S     4.060545  8.882494  1.077397
  S     3.199034  5.360223  5.207316
  S     3.504548  9.456800  5.197126
