16  
    
  C     1.070124  4.227495  2.825342
  C     1.581762  8.681942  2.968927
  C    -0.139581  3.814755  2.038102
  C     0.397758  8.146898  2.372144
  N     2.151745  4.642265  2.106434
  N     2.562534  8.925647  2.110310
  N     0.144221  3.600439  0.754586
  N     0.572989  7.871456  1.089280
  N    -0.858077  3.858399  4.465229
  N    -0.105988  8.464811  4.879256
  S    -1.462606  3.322400  2.993156
  S    -0.898982  8.062729  3.509994
  S     1.698662  4.198429  0.511051
  S     2.125524  8.400432  0.607118
  S     0.664283  4.351005  4.480824
  S     1.457215  8.865864  4.676044
