16  
    
  C     2.096473  4.672422  2.985029
  C     2.170355  8.565831  3.056669
  C     0.901164  4.168923  2.330676
  C     1.017715  7.906417  2.441461
  N     3.091897  4.580056  2.117980
  N     3.202809  8.744126  2.257316
  N     0.911213  4.097169  0.981063
  N     1.231432  7.593821  1.160807
  N     0.349707  4.431593  4.755561
  N     0.439274  8.496539  4.956513
  S    -0.381338  3.798875  3.448951
  S    -0.364247  7.835269  3.644675
  S     2.548131  4.356767  0.540909
  S     2.832935  8.028704  0.860182
  S     1.967826  4.752012  4.754518
  S     2.016556  8.956296  4.723280
