16  
    
  C    -5.323585  0.967785  1.747725
  C    -5.154143  4.738543  1.349972
  C    -6.529603  0.497338  1.145941
  C    -6.385351  4.326318  0.663113
  N    -4.245982  1.152396  0.974252
  N    -4.062801  4.871027  0.583299
  N    -6.460762  0.415432 -0.209476
  N    -6.196129  4.102899 -0.655548
  N    -7.180708  1.043382  3.660393
  N    -7.025831  4.904736  3.140564
  S    -7.871538  0.593875  2.212045
  S    -7.779575  4.427398  1.758275
  S    -4.819295  0.835088 -0.586021
  S    -4.589804  4.466892 -0.948417
  S    -5.510222  1.337101  3.453261
  S    -5.390773  5.270445  2.992303
