16  
    
  C    -3.394230  1.818143  1.577173
  C    -3.767328  5.510478  1.683378
  C    -4.514700  1.164218  0.970383
  C    -4.956409  4.982823  0.999085
  N    -2.352567  1.831713  0.775379
  N    -2.726094  5.736367  0.867159
  N    -4.436111  0.897148 -0.350366
  N    -4.836607  4.899520 -0.323973
  N    -5.085496  1.445352  3.553812
  N    -5.510924  5.241281  3.550475
  S    -5.854147  0.874550  2.181169
  S    -6.229223  4.791800  2.077846
  S    -2.851324  1.263589 -0.762871
  S    -3.328551  5.407575 -0.667275
  S    -3.578327  2.135123  3.322282
  S    -3.897168  5.579339  3.430403
