16  
    
  C    -5.320618  0.988617  1.377577
  C    -5.483532  4.710017  1.610345
  C    -6.479144  0.480979  0.746839
  C    -6.767184  4.323349  1.042502
  N    -4.373094  1.335733  0.513578
  N    -4.488093  4.818989  0.736164
  N    -6.392829  0.386471 -0.575377
  N    -6.724491  4.206142 -0.282387
  N    -7.106674  0.903544  3.171786
  N    -7.006057  4.263052  3.554464
  S    -7.798693  0.312278  1.834945
  S    -8.023349  4.266638  2.197975
  S    -4.895741  0.966269 -0.985658
  S    -5.143311  4.502207 -0.737027
  S    -5.518076  1.325046  3.089273
  S    -5.485851  4.888008  3.288623
