16  
    
  C    -0.718485  3.013251  2.448075
  C    -0.871155  6.316499  2.489677
  C    -1.985618  2.681253  1.854376
  C    -2.016485  5.853748  1.764064
  N     0.229519  3.319528  1.545284
  N     0.202009  6.548808  1.728137
  N    -1.937020  2.396935  0.528743
  N    -1.844982  5.871448  0.406501
  N    -2.436050  2.740489  4.412096
  N    -2.857179  6.407737  4.238215
  S    -3.251058  2.562364  2.962363
  S    -3.506517  5.738168  2.885191
  S    -0.391443  2.813563  0.060703
  S    -0.254407  6.195193  0.162486
  S    -0.835155  3.240243  4.178510
  S    -1.194447  6.637124  4.200001
