16  
    
  C    -0.416844  3.439523  2.720851
  C    -0.315239  7.022113  2.511695
  C    -1.413642  2.528623  2.073505
  C    -1.486792  6.428276  1.855398
  N     0.689191  3.576322  1.963604
  N     0.756398  7.165662  1.746176
  N    -1.159248  2.217564  0.793797
  N    -1.218596  5.992868  0.611717
  N    -2.255282  3.071678  4.462714
  N    -2.164467  7.021303  4.344973
  S    -2.800153  2.306407  3.062055
  S    -2.847379  6.276265  3.021268
  S     0.329523  2.841448  0.468240
  S     0.294396  6.526427  0.236961
  S    -0.735760  3.714487  4.433571
  S    -0.585649  7.472271  4.144797
