16  
    
  C     0.157716  3.507184  2.342244
  C     0.123649  7.294201  2.904680
  C    -1.018425  3.013671  1.719260
  C    -0.988796  6.810135  2.234056
  N     1.191876  3.648244  1.505152
  N     1.155082  7.393810  2.071072
  N    -0.951349  2.936655  0.396965
  N    -0.934691  6.646580  0.941522
  N    -1.507402  2.830463  4.191745
  N    -1.752526  7.162132  4.592134
  S    -2.376810  2.776798  2.808166
  S    -2.363210  6.481919  3.182552
  S     0.592436  3.486211 -0.027988
  S     0.639738  7.016413  0.568361
  S     0.074518  3.411280  4.037622
  S    -0.109549  7.662786  4.565191
