16  
    
  C    -3.902922  1.524192  1.723959
  C    -4.051941  5.332503  1.921337
  C    -5.187900  1.324940  1.075739
  C    -5.269508  5.078223  1.125885
  N    -2.921974  1.548567  0.837239
  N    -2.988564  5.599367  1.156551
  N    -5.156920  1.082269 -0.242742
  N    -5.059615  5.203056 -0.181098
  N    -5.691948  1.565703  3.637762
  N    -5.885822  5.000844  3.717560
  S    -6.524443  1.368373  2.161351
  S    -6.575610  4.806415  2.192837
  S    -3.505551  1.244860 -0.653285
  S    -3.481409  5.696429 -0.400878
  S    -4.053254  1.675099  3.432343
  S    -4.235114  5.081468  3.632428
