16  
    
  C    -0.768655  3.152248  2.628527
  C    -1.260950  6.551079  2.563155
  C    -1.918046  2.560661  2.029371
  C    -2.421288  5.968794  1.892000
  N     0.299672  3.091181  1.849905
  N    -0.271386  6.949452  1.721229
  N    -1.805078  2.252446  0.719444
  N    -2.247871  5.814865  0.569808
  N    -2.512930  3.013770  4.438088
  N    -3.094068  5.992054  4.309335
  S    -3.311381  2.637031  3.090329
  S    -3.792863  5.561927  2.843981
  S    -0.250375  2.676289  0.331547
  S    -0.776821  6.449080  0.227389
  S    -0.920564  3.279037  4.383095
  S    -1.499310  6.576101  4.279068
