16  
    
  C    -1.182169  3.285843  2.197280
  C    -1.078619  6.817323  2.534830
  C    -2.447812  2.785222  1.670917
  C    -2.384323  6.702732  1.909721
  N    -0.229016  3.389469  1.281773
  N    -0.039941  6.946524  1.688023
  N    -2.487590  2.565923  0.342967
  N    -2.289025  6.664402  0.547362
  N    -2.731869  2.947127  4.268602
  N    -2.816646  6.848827  4.487195
  S    -3.688978  2.638169  2.906236
  S    -3.635338  6.543557  3.112823
  S    -0.972932  3.055338 -0.191789
  S    -0.725277  7.005604  0.196565
  S    -1.130869  3.311196  3.877128
  S    -1.188951  7.126093  4.270130
