16  
    
  C     0.740173  3.946392  3.001711
  C     0.655715  7.549149  2.771325
  C    -0.501226  3.456990  2.367556
  C    -0.492154  6.826416  2.252144
  N     1.729961  4.017823  2.088692
  N     1.584283  7.765968  1.841247
  N    -0.353068  3.028389  1.122028
  N    -0.398162  6.598635  0.939189
  N    -1.180172  3.866579  4.791489
  N    -1.018168  7.374740  4.705407
  S    -1.838180  3.188019  3.476909
  S    -1.762434  6.717639  3.401524
  S     1.169274  3.372477  0.694690
  S     1.082141  7.141459  0.391037
  S     0.460767  4.399173  4.632830
  S     0.544727  7.843191  4.437330
