16  
    
  C    -4.164828  1.578062  1.846660
  C    -3.980237  5.171011  1.866609
  C    -5.347763  0.915183  1.423168
  C    -5.124489  4.603146  1.341161
  N    -3.181045  1.744226  1.006659
  N    -3.031764  5.351583  0.949316
  N    -5.300943  0.549910  0.188270
  N    -5.063265  4.177290  0.103770
  N    -5.896154  1.776400  3.704788
  N    -5.792803  5.299096  3.715449
  S    -6.662316  0.945616  2.511912
  S    -6.477181  4.598267  2.333828
  S    -3.829452  1.060968 -0.422980
  S    -3.572532  4.610327 -0.409619
  S    -4.298236  1.998032  3.530956
  S    -4.174647  5.667782  3.539199
