16  
    
  C    -2.925078  2.261204  1.856164
  C    -2.867453  5.936736  2.043208
  C    -4.033235  1.640694  1.147494
  C    -4.090166  5.448052  1.451097
  N    -1.944312  2.640908  1.050504
  N    -1.881503  6.086962  1.176758
  N    -3.883850  1.619563 -0.183153
  N    -4.047298  5.275028  0.108844
  N    -4.793563  1.756121  3.593688
  N    -4.568167  5.790683  3.928298
  S    -5.473025  1.416919  2.124890
  S    -5.340432  5.204694  2.620231
  S    -2.365920  2.295478 -0.534340
  S    -2.519946  5.622750 -0.323080
  S    -3.236576  2.323727  3.607419
  S    -2.934125  6.145921  3.709880
