16  
    
  C    -1.841859  2.420165  2.233195
  C    -1.885191  6.289791  2.282542
  C    -3.090640  1.990311  1.584998
  C    -3.009777  5.540597  1.697865
  N    -0.822154  2.676936  1.405676
  N    -0.914039  6.562973  1.393983
  N    -2.889127  1.700500  0.291803
  N    -2.974352  5.401133  0.326123
  N    -3.553367  2.181561  4.118715
  N    -3.523016  6.091985  4.177587
  S    -4.345095  1.801532  2.699329
  S    -4.205911  5.290038  2.893060
  S    -1.357484  2.174671 -0.098905
  S    -1.442918  5.899798  0.020018
  S    -1.924408  2.585825  3.954774
  S    -2.026664  6.751304  3.916643
