16  
    
  C    -4.326698  1.523330  2.060684
  C    -4.665546  5.243746  1.680873
  C    -5.457125  0.934006  1.365884
  C    -5.823756  4.666935  1.166003
  N    -3.316982  1.747163  1.239153
  N    -3.652436  5.354685  0.846044
  N    -5.322520  0.663255  0.093519
  N    -5.747779  4.365865 -0.119883
  N    -6.135035  1.426235  3.801923
  N    -6.252970  4.830844  3.570809
  S    -6.842884  0.844416  2.337177
  S    -7.145930  4.510007  2.241386
  S    -3.765593  1.257433 -0.286166
  S    -4.251591  4.831595 -0.597167
  S    -4.516810  1.951356  3.712914
  S    -4.723391  5.421510  3.387342
