16  
    
  C     0.977660  4.198732  2.561125
  C     1.107793  7.673773  3.156168
  C    -0.102303  3.372682  2.209478
  C    -0.131803  7.368298  2.571282
  N     2.065926  4.132060  1.754163
  N     2.099013  7.796862  2.261461
  N     0.079615  2.882283  0.981055
  N    -0.122648  7.157626  1.258581
  N    -0.749133  4.333493  4.489067
  N    -0.612110  7.569098  5.023127
  S    -1.491872  3.396589  3.321887
  S    -1.504000  7.240232  3.672801
  S     1.519355  3.403004  0.399980
  S     1.473494  7.389976  0.812962
  S     0.820602  4.759259  4.197571
  S     1.005237  8.038331  4.876085
