16  
    
  C     2.209254  4.318250  3.020612
  C     2.061824  8.457632  3.128768
  C     1.016412  3.975247  2.227376
  C     0.955424  7.703007  2.619231
  N     3.228205  4.570790  2.209287
  N     3.014835  8.604549  2.220013
  N     1.273830  3.541174  0.961510
  N     1.107736  7.216033  1.403653
  N     0.291188  4.224893  4.799171
  N     0.228431  8.603380  4.909414
  S    -0.421339  3.901052  3.323030
  S    -0.456447  7.765696  3.629290
  S     2.820872  4.063572  0.702988
  S     2.585078  7.677061  0.853692
  S     1.999549  4.561579  4.742326
  S     1.783048  9.106520  4.707675
