16  
    
  C    -3.158328  1.890214  1.841876
  C    -3.082796  5.760790  2.050176
  C    -4.241576  1.396893  1.050523
  C    -4.357942  5.351534  1.506785
  N    -2.096630  2.169486  1.106047
  N    -2.151691  6.083391  1.170135
  N    -4.006627  1.120015 -0.225686
  N    -4.327217  5.281270  0.175495
  N    -5.145813  1.643537  3.505538
  N    -4.844398  5.381583  4.062119
  S    -5.712705  1.153240  1.989887
  S    -5.658712  5.088022  2.659605
  S    -2.482616  1.741125 -0.488613
  S    -2.867742  5.765808 -0.368289
  S    -3.523052  2.151260  3.520443
  S    -3.204923  5.815097  3.845344
