16  
    
  C    -4.005911  1.526691  1.709925
  C    -3.960857  5.135862  1.953781
  C    -5.295751  1.286743  1.020946
  C    -5.283642  5.026599  1.242130
  N    -2.979038  1.457113  0.891396
  N    -2.913941  5.474537  1.170853
  N    -5.168643  1.113712 -0.287332
  N    -5.178681  5.195193 -0.047674
  N    -5.754599  1.596702  3.465744
  N    -5.883442  4.922787  3.656033
  S    -6.620607  1.339256  2.095676
  S    -6.703157  4.870888  2.204335
  S    -3.587379  1.152160 -0.611194
  S    -3.611628  5.553451 -0.402089
  S    -4.076793  1.667228  3.406858
  S    -4.216009  5.187282  3.673496
