16  
    
  C    -4.222827  1.678178  1.885963
  C    -4.290804  5.190402  1.743253
  C    -5.450561  1.157438  1.283671
  C    -5.576061  4.700815  1.155414
  N    -3.143394  1.691759  1.085556
  N    -3.282029  5.278028  0.864478
  N    -5.239968  0.665758  0.053887
  N    -5.501360  4.488968 -0.156423
  N    -6.049828  1.471362  3.769560
  N    -5.936619  5.064440  3.676524
  S    -6.789851  0.997100  2.360967
  S    -6.813790  4.664757  2.363226
  S    -3.632182  0.966108 -0.282057
  S    -3.919212  4.763078 -0.588219
  S    -4.546378  2.169652  3.496419
  S    -4.422902  5.637187  3.423977
