16  
    
  C    -4.217224  1.548118  1.849886
  C    -4.132281  5.303277  1.755840
  C    -5.394887  0.929424  1.336373
  C    -5.323019  4.663494  1.243758
  N    -3.218095  1.667764  0.996726
  N    -3.100219  5.320864  0.928731
  N    -5.299473  0.532897  0.092882
  N    -5.206907  4.270668 -0.015011
  N    -6.003736  1.683833  3.770635
  N    -5.805510  5.151299  3.664414
  S    -6.730315  0.932445  2.436926
  S    -6.679045  4.564667  2.376631
  S    -3.728440  1.045940 -0.398757
  S    -3.679185  4.642866 -0.496014
  S    -4.340009  2.164222  3.550948
  S    -4.199581  5.646399  3.487405
