16  
    
  C     2.447002  5.008187  3.510161
  C     2.466078  8.653208  3.424063
  C     1.318108  4.424051  2.807989
  C     1.248679  8.054659  2.893458
  N     3.555705  4.949535  2.771097
  N     3.411200  8.894457  2.492650
  N     1.496227  4.386263  1.503932
  N     1.306181  7.890926  1.565278
  N     0.642085  4.509261  5.255060
  N     0.967930  8.466700  5.430591
  S    -0.002755  3.925600  3.790690
  S     0.026901  7.905821  4.195450
  S     3.082147  4.691093  1.226740
  S     2.839743  8.322238  1.098867
  S     2.205393  5.038613  5.206911
  S     2.467616  8.959326  5.092393
