16  
    
  C     1.826077  4.337040  3.105646
  C     1.960632  8.002879  3.123609
  C     0.541482  3.951656  2.496710
  C     0.777137  7.541102  2.458861
  N     2.874649  4.177403  2.305864
  N     2.924025  8.308563  2.238359
  N     0.649716  3.855419  1.165136
  N     0.860255  7.513151  1.122932
  N     0.214871  4.300052  5.069653
  N     0.157431  7.497861  4.963261
  S    -0.679493  4.015759  3.681121
  S    -0.522311  7.181674  3.482979
  S     2.257480  4.016660  0.779244
  S     2.369734  7.898106  0.708857
  S     1.857542  4.428578  4.846303
  S     1.787672  7.928398  4.884406
