16  
    
  C     1.374378  4.537863  3.286027
  C     1.433116  8.006089  3.115735
  C     0.036948  4.219991  2.808852
  C     0.197313  7.891480  2.406946
  N     2.206790  4.878971  2.274845
  N     2.536375  7.932232  2.375294
  N    -0.030889  3.938500  1.494739
  N     0.352676  7.599385  1.118045
  N    -0.113825  4.374564  5.398782
  N    -0.348603  8.037964  4.914147
  S    -1.094613  4.095841  4.142673
  S    -1.185672  8.005227  3.481161
  S     1.442369  4.291352  0.935790
  S     1.955854  7.664610  0.820878
  S     1.443978  4.654946  5.049381
  S     1.311063  8.107177  4.804997
