16  
    
  C    -3.704332  1.835424  1.852187
  C    -3.949154  5.320376  1.803057
  C    -4.952800  1.385335  1.192656
  C    -5.088611  4.927273  1.047021
  N    -2.699149  2.095136  1.040981
  N    -2.893525  5.656691  1.041586
  N    -4.899413  1.363271 -0.142304
  N    -4.914682  4.887971 -0.268304
  N    -5.380580  1.527941  3.681727
  N    -5.767809  4.905872  3.513806
  S    -6.171598  1.131710  2.299632
  S    -6.454362  4.423592  2.049170
  S    -3.351775  1.819821 -0.525475
  S    -3.369964  5.448830 -0.479850
  S    -3.765270  1.862903  3.579677
  S    -4.233739  5.451195  3.488462
