16  
    
  C     0.953889  4.138213  2.611366
  C     1.360692  7.926039  3.253288
  C    -0.086342  3.340552  1.871803
  C     0.084711  7.666206  2.586906
  N     2.074782  4.379220  1.897427
  N     2.325892  7.990185  2.355067
  N     0.183740  3.204993  0.559728
  N     0.181258  7.414332  1.305108
  N    -0.948646  3.868302  4.242620
  N    -0.440736  7.967292  5.078049
  S    -1.527377  3.230498  2.810543
  S    -1.227382  7.695645  3.644624
  S     1.746124  3.781918  0.364872
  S     1.753308  7.711920  0.793758
  S     0.614831  4.371706  4.295016
  S     1.173098  8.118067  4.929760
