16  
    
  C     1.004922  4.192307  2.569935
  C     1.310459  7.971710  3.145264
  C    -0.015814  3.501230  1.939650
  C     0.076091  7.574652  2.581018
  N     2.095843  4.318102  1.857291
  N     2.358658  8.075613  2.300094
  N     0.280131  3.184574  0.696780
  N     0.099600  7.382585  1.247762
  N    -0.984329  3.973303  4.274509
  N    -0.509326  7.955411  5.066120
  S    -1.505739  3.203813  2.880116
  S    -1.314093  7.672479  3.617153
  S     1.760184  3.749429  0.366145
  S     1.687964  7.682441  0.869241
  S     0.607204  4.421386  4.236747
  S     1.158959  8.139791  4.909666
