16  
    
  C     0.734075  3.701787  3.187846
  C     1.226257  7.551475  2.886225
  C    -0.512691  3.427879  2.516456
  C     0.000111  7.017850  2.181131
  N     1.707762  4.104916  2.346097
  N     2.302969  7.649793  2.087294
  N    -0.342207  3.356234  1.168399
  N     0.214252  6.763818  0.893089
  N    -1.000065  3.245402  5.031191
  N    -0.768119  7.486826  4.582509
  S    -1.826445  3.035993  3.584414
  S    -1.403078  6.832257  3.155700
  S     1.234343  3.717911  0.865180
  S     1.787766  7.175698  0.606851
  S     0.595369  3.635405  4.872397
  S     0.819282  7.958477  4.549954
