16  
    
  C    -0.304350  3.160361  2.631716
  C    -0.246405  7.097133  2.420261
  C    -1.506682  2.672523  2.046801
  C    -1.337423  6.255013  1.855233
  N     0.616797  3.467815  1.737904
  N     0.722057  7.264687  1.561184
  N    -1.516701  2.461787  0.722433
  N    -1.185689  5.914729  0.590634
  N    -1.937228  2.901211  4.622763
  N    -1.980739  6.748855  4.238452
  S    -2.797517  2.507871  3.226838
  S    -2.602742  5.897571  2.922779
  S     0.028795  2.915437  0.245830
  S     0.182000  6.637465  0.097485
  S    -0.304073  3.305503  4.398794
  S    -0.430610  7.360053  4.076182
