16  
    
  C     2.994975  5.262808  3.359080
  C     3.385314  9.134918  3.346301
  C     1.849116  4.631392  2.666933
  C     2.132155  8.688014  2.858346
  N     4.018978  5.515337  2.568429
  N     4.381615  9.118946  2.494935
  N     2.116689  4.390213  1.379225
  N     2.229698  8.372655  1.544977
  N     1.330183  4.689818  5.287065
  N     1.911253  8.992399  5.437656
  S     0.511166  4.297836  3.861274
  S     0.894246  8.592982  4.182542
  S     3.677730  4.890887  1.068267
  S     3.762376  8.652489  1.078411
  S     2.748254  5.546119  5.098658
  S     3.527748  9.242406  5.012459
