16  
    
  C     1.207369  4.408003  3.157753
  C     1.666831  8.181902  3.013318
  C    -0.015622  3.969721  2.522989
  C     0.382924  7.997720  2.350035
  N     2.131561  4.594129  2.239453
  N     2.739100  8.005204  2.226245
  N    -0.047917  4.111192  1.209778
  N     0.428709  7.790805  1.010859
  N    -0.472060  4.191632  5.147149
  N    -0.119399  8.258953  4.884503
  S    -1.241666  3.766806  3.674549
  S    -0.977261  8.149366  3.458510
  S     1.537089  4.417214  0.735998
  S     2.083180  7.834088  0.749740
  S     1.122611  4.574142  4.879911
  S     1.539108  8.375424  4.737844
