16  
    
  C    -3.796106  1.521892  1.788494
  C    -3.964329  5.534736  1.936876
  C    -5.090430  1.385083  1.147684
  C    -5.160185  5.214397  1.114401
  N    -2.836337  1.719264  0.917442
  N    -2.909283  5.811239  1.206288
  N    -5.031178  1.229264 -0.164915
  N    -4.959717  5.191250 -0.203431
  N    -5.517733  1.493378  3.661349
  N    -5.801484  4.670486  3.519536
  S    -6.355231  1.269110  2.229804
  S    -6.502277  4.701065  2.003895
  S    -3.453147  1.509104 -0.535016
  S    -3.404388  5.662229 -0.433491
  S    -3.846201  1.749195  3.501591
  S    -4.203199  5.214253  3.591732
