16  
    
  C     3.602103  5.369010  3.565696
  C     3.463780  9.158014  3.583202
  C     2.367419  4.914833  2.909182
  C     2.296339  8.620424  2.888869
  N     4.641640  5.630003  2.779102
  N     4.474726  9.401650  2.759819
  N     2.485562  5.037652  1.569974
  N     2.504089  8.370549  1.627840
  N     1.764257  5.229460  5.463018
  N     1.612005  8.596702  5.339255
  S     1.053392  4.907437  4.068917
  S     0.975493  8.147949  3.844917
  S     4.069804  5.371295  1.191745
  S     3.901751  8.980687  1.247266
  S     3.386732  5.429901  5.321487
  S     3.159798  9.210778  5.359184
