16  
    
  C     0.120988  3.450391  2.318546
  C     0.281264  7.594847  2.853971
  C    -1.144232  3.344979  1.709171
  C    -0.776788  6.808832  2.327241
  N     1.093001  3.566632  1.461592
  N     1.260080  7.775140  1.968749
  N    -1.152389  3.203456  0.395003
  N    -0.672703  6.465454  1.073376
  N    -1.586471  3.423025  4.215373
  N    -1.487643  7.188849  4.672299
  S    -2.424034  3.024654  2.862634
  S    -2.151066  6.602505  3.257613
  S     0.456591  3.530660 -0.062489
  S     0.872978  6.912395  0.635343
  S     0.048539  3.666996  4.084581
  S     0.003675  7.926543  4.541198
