16  
    
  C     2.548893  4.669447  3.538355
  C     2.477754  8.750119  3.456886
  C     1.338472  4.417054  2.759872
  C     1.236929  8.217413  2.912378
  N     3.570735  5.044951  2.754127
  N     3.457926  8.886523  2.552638
  N     1.455067  4.319174  1.445377
  N     1.309338  7.835518  1.625054
  N     0.517879  4.449932  5.217833
  N     1.002931  8.407856  5.513634
  S     0.021231  3.923497  3.733298
  S     0.043245  8.021056  4.172572
  S     3.044650  4.724197  1.156493
  S     2.820610  8.370686  1.074061
  S     2.126878  4.978877  5.236949
  S     2.576514  8.870008  5.108542
