16  
    
  C    -0.310861  3.250323  2.734114
  C    -0.280230  7.165992  2.439298
  C    -1.451875  2.696210  2.041701
  C    -1.392500  6.717707  1.720539
  N     0.678411  3.506882  1.854876
  N     0.893550  7.120391  1.793401
  N    -1.250371  2.249181  0.789407
  N    -1.210996  6.389862  0.444341
  N    -2.226882  3.130108  4.469226
  N    -2.226667  6.859077  4.218300
  S    -2.753173  2.304447  3.103152
  S    -2.866415  6.545908  2.708523
  S     0.285727  2.759408  0.404155
  S     0.418861  6.717931  0.167598
  S    -0.688721  3.790019  4.373407
  S    -0.625761  7.331125  4.174500
