16  
    
  C    -3.201871  1.805296  1.975604
  C    -3.146302  5.693509  2.104269
  C    -4.384114  1.377631  1.280094
  C    -4.287519  5.119814  1.487452
  N    -2.060929  1.907259  1.266586
  N    -2.113501  5.939676  1.239400
  N    -4.210434  1.357685 -0.049584
  N    -4.168789  4.816293  0.188555
  N    -5.076681  1.624439  3.710028
  N    -4.827200  5.048793  4.064144
  S    -5.804039  1.241295  2.224010
  S    -5.580465  4.660800  2.646089
  S    -2.630313  1.686248 -0.322543
  S    -2.731585  5.452116 -0.282222
  S    -3.428925  1.981369  3.715034
  S    -3.387026  5.819714  3.813400
