16  
    
  C     1.804171  4.500375  3.352856
  C     1.425849  8.186701  2.988806
  C     0.522798  4.115584  2.804113
  C     0.366793  7.397192  2.385534
  N     2.789484  4.663129  2.448877
  N     2.372266  8.651919  2.138511
  N     0.644822  3.768664  1.552908
  N     0.559739  7.045804  1.118203
  N     0.035820  4.553805  5.254750
  N    -0.346863  7.554741  4.856648
  S    -0.821516  4.281705  3.914200
  S    -0.984918  6.981934  3.424452
  S     2.238443  4.015896  1.038784
  S     1.902424  7.934538  0.703764
  S     1.694666  4.855491  5.057926
  S     1.197237  8.210621  4.790332
