16  
    
  C    -2.457062  2.532401  1.991275
  C    -2.386532  6.208711  2.091896
  C    -3.727647  2.039139  1.411455
  C    -3.562780  5.632004  1.448323
  N    -1.484064  2.504396  1.099973
  N    -1.367350  6.484955  1.349292
  N    -3.701426  1.874813  0.086212
  N    -3.288618  5.310323  0.202343
  N    -4.137489  2.444704  3.965512
  N    -4.225193  5.835240  3.926752
  S    -4.981107  1.994877  2.616398
  S    -4.983445  5.390303  2.488893
  S    -2.124165  2.188816 -0.371481
  S    -1.698509  5.674858 -0.121061
  S    -2.566215  2.940937  3.683975
  S    -2.668687  6.409981  3.825762
