16  
    
  C    -2.376868  1.946751  2.015114
  C    -2.665518  5.715233  2.084735
  C    -3.677546  1.817051  1.467466
  C    -3.878527  5.319411  1.406800
  N    -1.329500  1.867139  1.204066
  N    -1.601084  5.780244  1.251371
  N    -3.652240  1.676911  0.150617
  N    -3.765153  5.198546  0.086226
  N    -4.075383  2.287126  4.005966
  N    -4.347243  5.486293  3.912484
  S    -4.988791  2.093821  2.642957
  S    -5.089926  5.031533  2.498575
  S    -2.040549  1.800518 -0.314162
  S    -2.104783  5.471015 -0.206261
  S    -2.443206  2.360433  3.718975
  S    -2.706592  5.786322  3.797480
