16  
    
  C    -0.701053  3.265832  2.728110
  C    -1.346512  6.570595  2.614281
  C    -1.880404  2.664830  2.181208
  C    -2.454079  6.117862  1.828884
  N     0.413722  3.241535  1.985975
  N    -0.215796  6.859291  1.942283
  N    -1.742272  2.379790  0.882817
  N    -2.141819  5.947996  0.521756
  N    -2.401531  3.094872  4.578252
  N    -3.164760  6.087394  4.281302
  S    -3.248819  2.798622  3.249196
  S    -3.826837  5.632238  2.802966
  S    -0.151490  2.673901  0.493560
  S    -0.664792  6.616015  0.401638
  S    -0.809630  3.488849  4.503136
  S    -1.580341  6.689767  4.290467
