16  
    
  C    -0.718076  2.920842  2.573421
  C    -1.281555  6.495318  2.444263
  C    -1.956757  2.501358  1.931303
  C    -2.429264  5.994424  1.763407
  N     0.330856  3.049717  1.758075
  N    -0.225105  6.867924  1.716672
  N    -1.870212  2.483468  0.618123
  N    -2.174091  5.754813  0.479913
  N    -2.550124  2.889911  4.403633
  N    -2.961915  5.933496  4.352588
  S    -3.339490  2.443741  2.998537
  S    -3.703371  5.619736  2.940791
  S    -0.262852  2.681318  0.218963
  S    -0.621130  6.322612  0.215318
  S    -0.924970  3.287800  4.252497
  S    -1.426130  6.548771  4.228560
