16  
    
  C     3.212100  4.975031  3.469504
  C     3.514055  8.941474  3.783956
  C     1.933292  4.807437  2.821969
  C     2.262901  8.752766  3.100052
  N     4.276882  5.006312  2.670873
  N     4.572037  8.972256  2.984047
  N     2.051314  4.498289  1.538077
  N     2.310380  8.760214  1.769370
  N     1.360381  5.151392  5.282740
  N     1.457182  9.292546  5.504445
  S     0.580736  4.745193  3.845793
  S     0.873187  8.883139  3.980842
  S     3.673339  4.751766  1.124324
  S     3.936385  8.780034  1.410079
  S     3.028836  5.220707  5.212167
  S     3.205680  9.232422  5.547133
