16  
    
  C     2.842426  5.056015  3.783102
  C     2.214829  8.632050  3.404372
  C     1.591210  4.628419  3.235065
  C     1.198289  7.930323  2.659802
  N     3.742158  5.229847  2.813838
  N     3.316680  8.888206  2.728471
  N     1.607584  4.241800  1.964427
  N     1.571485  7.649491  1.384971
  N     1.149833  4.919918  5.703584
  N     0.346973  8.365544  5.199262
  S     0.360801  4.398166  4.373515
  S    -0.149286  7.521194  3.775137
  S     3.116738  4.591349  1.451963
  S     3.058747  8.393294  1.223285
  S     2.611058  5.669128  5.420642
  S     1.885028  9.001474  5.025378
