16  
    
  C    -5.749270  0.961966  1.574146
  C    -5.979054  4.766878  1.392696
  C    -6.914231  0.439865  0.901938
  C    -7.156235  4.274523  0.712726
  N    -4.701268  1.019416  0.787122
  N    -4.940655  4.865902  0.603694
  N    -6.707287  0.271452 -0.402728
  N    -7.004747  4.135324 -0.588707
  N    -7.533080  0.655386  3.326924
  N    -7.677647  4.493887  3.251812
  S    -8.281974  0.114941  1.916179
  S    -8.471179  3.981325  1.852576
  S    -5.146268  0.617979 -0.712133
  S    -5.399465  4.445273 -0.922874
  S    -5.957178  1.029358  3.286605
  S    -6.025946  4.730443  3.125805
