16  
    
  C    -1.884853  2.417114  2.628033
  C    -1.694582  5.838628  2.326209
  C    -3.114185  1.970211  1.938475
  C    -2.994344  5.639863  1.597317
  N    -0.876710  2.769644  1.838149
  N    -0.689215  6.086373  1.533933
  N    -2.877244  1.811661  0.646395
  N    -2.905006  5.736106  0.268815
  N    -3.733883  2.086673  4.396314
  N    -3.521501  5.651406  4.136030
  S    -4.491262  1.856634  2.925428
  S    -4.299138  5.401291  2.666577
  S    -1.384708  2.372032  0.306662
  S    -1.266412  5.874112  0.009004
  S    -2.091363  2.402142  4.381029
  S    -1.830571  5.799292  4.096141
