16  
    
  C     0.031540  3.646974  2.593947
  C     0.294159  7.544234  2.639381
  C    -1.093871  2.858084  1.988778
  C    -0.958846  7.177925  1.989573
  N     1.049091  3.833013  1.747533
  N     1.396329  7.703175  1.894091
  N    -0.973222  2.749989  0.682035
  N    -0.762642  7.006629  0.671615
  N    -1.812620  3.381625  4.388902
  N    -1.466916  7.179799  4.515802
  S    -2.376222  2.610495  3.097118
  S    -2.318890  7.018422  3.108092
  S     0.556096  3.165510  0.314483
  S     0.790492  7.296691  0.360262
  S    -0.269880  4.070025  4.276181
  S     0.216407  7.477332  4.390638
