16  
    
  C     2.960369  5.188922  3.644395
  C     2.858169  8.896909  3.310531
  C     1.639619  4.986685  3.114186
  C     1.616398  8.446474  2.740301
  N     3.909421  4.823180  2.761945
  N     3.858380  8.845372  2.407490
  N     1.567972  4.837534  1.774326
  N     1.633965  7.952586  1.466499
  N     1.278860  5.544587  5.706020
  N     1.095170  8.802194  5.219284
  S     0.405882  5.354590  4.298342
  S     0.303199  8.518651  3.825390
  S     3.179409  4.717785  1.309244
  S     3.258283  8.119084  1.064394
  S     2.931761  5.411336  5.413657
  S     2.721871  9.033287  5.028343
