16  
    
  C    -6.123885  0.850564  1.381525
  C    -6.075096  4.394545  1.858869
  C    -7.267553  0.151488  0.838588
  C    -7.277817  3.937422  1.084548
  N    -5.221516  1.332351  0.504787
  N    -4.974761  4.686446  1.083443
  N    -7.307726  0.134372 -0.500813
  N    -7.054613  3.901700 -0.253673
  N    -7.574916  0.277066  3.360372
  N    -7.973816  3.847897  3.597346
  S    -8.355451 -0.362703  2.026713
  S    -8.664702  3.565455  2.100331
  S    -5.917701  0.877780 -0.946249
  S    -5.510552  4.434731 -0.467925
  S    -6.094376  0.926519  3.148666
  S    -6.420734  4.456238  3.514656
