16  
    
  C    -2.397143  2.210639  2.142174
  C    -2.559194  5.625577  2.042578
  C    -3.678144  1.895679  1.474990
  C    -3.839934  5.258355  1.482467
  N    -1.374973  2.156597  1.278728
  N    -1.568094  5.861063  1.204058
  N    -3.630945  1.855756  0.130808
  N    -3.767902  5.118843  0.170264
  N    -4.154882  2.116104  4.037538
  N    -4.405614  5.385239  4.004411
  S    -4.964364  1.943792  2.578833
  S    -5.198222  4.939303  2.601243
  S    -2.041106  1.903184 -0.253610
  S    -2.200883  5.592444 -0.296456
  S    -2.476608  2.335383  3.866283
  S    -2.758336  5.711916  3.830280
