16  
    
  C    -2.596820  2.099074  2.007043
  C    -2.459780  5.750800  2.154807
  C    -3.821810  1.738656  1.393845
  C    -3.650673  5.391677  1.377711
  N    -1.553891  2.153747  1.182569
  N    -1.397886  5.878769  1.394074
  N    -3.744114  1.661397  0.070140
  N    -3.446499  5.150086  0.098797
  N    -4.353639  2.160503  3.910339
  N    -4.494288  5.967651  3.808322
  S    -5.213483  2.040103  2.449485
  S    -5.098526  5.269673  2.400221
  S    -2.134442  1.920282 -0.340443
  S    -1.871667  5.320733 -0.199621
  S    -2.671221  2.382942  3.720515
  S    -2.842785  6.044951  3.832398
