16  
    
  C     2.455944  4.761418  3.470079
  C     2.561932  8.754668  3.441667
  C     1.350375  4.151271  2.762799
  C     1.308938  8.246165  2.968966
  N     3.531058  4.996687  2.688221
  N     3.487422  8.902888  2.452526
  N     1.533718  4.254595  1.452624
  N     1.301886  7.973814  1.653066
  N     0.600581  4.383595  5.194152
  N     0.973022  8.431121  5.432258
  S    -0.126734  3.933309  3.736499
  S     0.065250  8.090588  4.122603
  S     3.059162  4.793827  1.098441
  S     2.767216  8.395344  1.069530
  S     2.125934  4.899511  5.210531
  S     2.569065  8.850258  5.279358
