16  
    
  C    -5.459743  1.219549  1.262901
  C    -5.459943  4.844589  1.612132
  C    -6.559179  0.596809  0.635168
  C    -6.663094  4.394519  0.938661
  N    -4.397898  1.459129  0.480253
  N    -4.446498  4.992358  0.758138
  N    -6.415760  0.529486 -0.691257
  N    -6.560867  4.340478 -0.385362
  N    -7.134818  0.646733  3.115487
  N    -7.285899  4.692310  3.344438
  S    -7.783394  0.091701  1.731967
  S    -7.979512  4.111226  1.951128
  S    -4.888764  1.014414 -1.055472
  S    -4.998887  4.747906 -0.776934
  S    -5.610178  1.170433  3.004781
  S    -5.628724  4.923513  3.332323
