16  
    
  C     1.242323  4.719925  3.261536
  C     1.476461  7.981699  3.107744
  C    -0.007471  4.089560  2.780981
  C     0.233718  7.822802  2.433059
  N     2.188999  4.800298  2.319704
  N     2.544513  7.932978  2.292789
  N    -0.103582  3.985618  1.465124
  N     0.360663  7.562962  1.138454
  N    -0.166524  4.250368  5.397826
  N    -0.345813  8.078982  4.945160
  S    -1.135575  4.036082  4.019357
  S    -1.083506  8.141367  3.461866
  S     1.450628  4.330330  0.861139
  S     2.011300  7.673629  0.774642
  S     1.435988  4.654152  4.989526
  S     1.333727  8.123341  4.840454
