16  
    
  C     1.400005  4.512147  3.307105
  C     1.440212  8.024677  3.083796
  C     0.017556  4.231443  2.868718
  C     0.165481  7.873829  2.406538
  N     2.217737  4.835057  2.274828
  N     2.576178  7.934571  2.348141
  N    -0.001797  3.925947  1.575040
  N     0.308016  7.640824  1.097765
  N    -0.076406  4.431390  5.417630
  N    -0.365605  8.022736  4.900137
  S    -1.107873  4.106486  4.153689
  S    -1.217990  7.947685  3.488932
  S     1.470123  4.296005  0.934984
  S     1.947834  7.667369  0.849131
  S     1.457774  4.660439  5.052095
  S     1.300492  8.109790  4.815509
