16  
    
  C    -2.678796  2.501132  2.315073
  C    -2.719362  6.522496  1.971379
  C    -3.767641  1.864685  1.685721
  C    -3.780930  5.821071  1.221466
  N    -1.783153  2.898309  1.435914
  N    -1.645949  6.767161  1.226190
  N    -3.733633  1.688888  0.387149
  N    -3.494068  5.543502 -0.024151
  N    -4.391533  2.214410  4.189482
  N    -4.527927  5.725174  3.725440
  S    -5.095502  1.594481  2.797076
  S    -5.172594  5.337361  2.210497
  S    -2.296564  2.387697 -0.067086
  S    -2.033898  6.137005 -0.330492
  S    -2.865061  2.883192  4.007690
  S    -2.977796  6.378461  3.688858
