16  
    
  C    -2.049456  2.385332  1.977791
  C    -2.107054  5.758945  2.196822
  C    -3.324270  1.975017  1.396358
  C    -3.359462  5.558832  1.581994
  N    -1.010671  2.467271  1.125427
  N    -1.050976  5.808491  1.352005
  N    -3.219043  1.747314  0.094213
  N    -3.314466  5.551068  0.242756
  N    -3.821132  2.367525  3.888431
  N    -3.799999  5.810935  4.082473
  S    -4.635096  1.879107  2.496111
  S    -4.727291  5.438018  2.687413
  S    -1.683703  2.102742 -0.351696
  S    -1.657986  5.731643 -0.150425
  S    -2.169145  2.520401  3.680609
  S    -2.160366  6.123065  3.864638
