16  
    
  C     2.958985  5.066387  3.257264
  C     2.854126  9.124172  3.788774
  C     1.729220  4.800247  2.568083
  C     1.647649  8.677328  3.099861
  N     4.047712  5.182483  2.486917
  N     3.941278  9.319420  3.105053
  N     1.969441  4.427803  1.292456
  N     1.907466  8.559129  1.810215
  N     1.156481  4.961392  5.043673
  N     1.233797  8.875997  5.664774
  S     0.391075  4.481357  3.628437
  S     0.396778  8.354896  4.326211
  S     3.533015  4.772664  0.962065
  S     3.589658  8.832133  1.553902
  S     2.810808  5.361019  4.948746
  S     2.765821  9.426976  5.496847
