16  
    
  C     0.513484  3.643528  2.955923
  C     0.588156  7.505119  2.917134
  C    -0.822910  3.610207  2.364479
  C    -0.625494  7.081106  2.138721
  N     1.457526  3.745671  2.025408
  N     1.657694  7.659650  2.131671
  N    -0.848819  3.563848  1.032270
  N    -0.407023  6.813825  0.843755
  N    -1.127347  3.492389  4.940872
  N    -1.425267  7.268119  4.634682
  S    -2.033612  3.313775  3.588189
  S    -2.095243  7.055497  3.114796
  S     0.697873  3.857901  0.544041
  S     1.121890  7.198644  0.610185
  S     0.535182  3.600886  4.703911
  S     0.233423  7.795431  4.638030
