16  
    
  C    -5.475043  0.928369  1.410119
  C    -5.081681  4.921701  1.321499
  C    -6.673442  0.451477  0.756989
  C    -6.156977  4.206896  0.801687
  N    -4.502688  1.226897  0.564665
  N    -4.273680  5.361756  0.388334
  N    -6.551380  0.244512 -0.557810
  N    -6.187782  4.072672 -0.505591
  N    -7.209101  0.482999  3.276180
  N    -6.607836  4.360340  3.255246
  S    -8.023047  0.157522  1.795762
  S    -7.420386  3.882065  1.887216
  S    -5.051639  0.818531 -0.972018
  S    -4.870126  4.878771 -1.096841
  S    -5.703464  1.181973  3.063457
  S    -5.251270  5.292432  3.028676
