16  
    
  C     1.983452  4.499539  3.354789
  C     1.496958  8.002269  3.017777
  C     0.787641  4.081667  2.701086
  C     0.413127  7.342858  2.309985
  N     2.930061  4.718805  2.448080
  N     2.502253  8.385721  2.230489
  N     0.818077  3.769638  1.431786
  N     0.583115  7.131302  0.999589
  N     0.195977  4.477190  5.155972
  N    -0.295901  7.631850  4.847715
  S    -0.527804  3.950187  3.795961
  S    -0.939661  6.969500  3.445914
  S     2.421974  4.187318  0.922576
  S     2.061393  7.963308  0.718035
  S     1.786397  4.905255  4.997093
  S     1.223740  8.251100  4.734597
