16  
    
  C     3.092033  4.888844  3.400386
  C     2.984589  9.020177  3.753746
  C     1.833473  4.697940  2.670146
  C     1.684296  8.691622  3.257236
  N     4.163676  5.120626  2.647174
  N     3.997867  8.933971  2.905208
  N     2.021666  4.610083  1.361267
  N     1.777701  8.216227  2.045194
  N     1.242408  5.003286  5.170465
  N     1.536346  9.235018  5.778547
  S     0.493549  4.655808  3.752085
  S     0.492950  8.764758  4.610760
  S     3.662403  4.871749  1.069785
  S     3.316508  8.409364  1.511705
  S     2.873443  5.271639  5.066222
  S     3.115370  9.304209  5.431528
