16  
    
  C    -5.352896  0.972434  1.594908
  C    -5.171787  4.682595  1.489034
  C    -6.674718  0.766549  0.969871
  C    -6.442181  4.277830  0.944018
  N    -4.299454  1.120469  0.775716
  N    -4.159071  4.599401  0.604023
  N    -6.659711  0.656741 -0.380423
  N    -6.480166  3.960071 -0.370761
  N    -7.161811  1.063894  3.429291
  N    -6.794922  4.513281  3.447087
  S    -8.004373  0.963528  2.068668
  S    -7.729244  4.344298  2.090114
  S    -5.013805  0.912646 -0.767667
  S    -4.928406  4.178972 -0.822299
  S    -5.554061  1.348030  3.265929
  S    -5.199149  5.122235  3.213767
