16  
    
  C     2.461483  4.957280  3.499219
  C     2.499589  8.710256  3.430067
  C     1.339982  4.377779  2.842958
  C     1.324142  8.064949  2.894868
  N     3.496710  5.210601  2.698909
  N     3.443488  8.765734  2.495653
  N     1.509435  4.216194  1.507665
  N     1.316557  7.738583  1.600896
  N     0.753152  4.480170  5.495736
  N     0.674132  8.547052  5.336919
  S    -0.002577  4.128947  3.981836
  S     0.049521  7.685733  4.032880
  S     3.087977  4.647414  1.214953
  S     2.739926  8.321904  1.074473
  S     2.285464  5.146396  5.217582
  S     2.249264  9.125323  5.148017
