16  
    
  C    -2.562880  2.346618  2.326146
  C    -2.731053  5.853926  2.038397
  C    -3.743809  1.809360  1.622435
  C    -3.901731  5.409654  1.296572
  N    -1.644349  2.839237  1.524353
  N    -1.663829  6.052266  1.273691
  N    -3.601014  1.810110  0.304357
  N    -3.750579  5.211648  0.004581
  N    -4.332745  1.995795  4.133252
  N    -4.493823  5.474616  3.897753
  S    -5.037937  1.530827  2.719241
  S    -5.183721  4.894985  2.500969
  S    -2.159615  2.513886 -0.061118
  S    -2.183550  5.745991 -0.290372
  S    -2.759974  2.455723  4.043771
  S    -2.878637  5.726710  3.778630
