16  
    
  C    -1.299827  3.345712  2.077494
  C    -0.994427  6.814415  2.592680
  C    -2.403108  2.621001  1.520381
  C    -2.311866  6.619566  1.961127
  N    -0.339988  3.630177  1.206716
  N     0.004001  7.199720  1.767080
  N    -2.408791  2.708106  0.200852
  N    -2.241189  6.677448  0.614969
  N    -2.885904  2.878580  4.070957
  N    -2.748428  6.759849  4.486811
  S    -3.605851  2.218720  2.702928
  S    -3.636214  6.704712  3.098695
  S    -0.937824  3.260016 -0.305293
  S    -0.632682  7.027279  0.230241
  S    -1.416272  3.664082  3.788306
  S    -1.142413  6.964757  4.318130
