16  
    
  C     0.286646  3.536775  2.863949
  C     0.394398  7.579091  2.791970
  C    -0.917151  3.311419  2.148724
  C    -0.926265  7.476975  2.238690
  N     1.300596  3.973352  2.116091
  N     1.358460  7.665383  1.873874
  N    -0.731125  3.146324  0.812037
  N    -1.006960  7.557402  0.921044
  N    -1.526987  3.074475  4.681547
  N    -1.290845  7.506388  4.744962
  S    -2.213956  2.802631  3.194096
  S    -2.216257  7.417877  3.385363
  S     0.801235  3.686620  0.569111
  S     0.551665  7.543374  0.369633
  S     0.127937  3.471701  4.646071
  S     0.374991  7.582192  4.549483
