16  
    
  C     0.127517  3.569070  2.288327
  C     0.192441  7.251907  2.923754
  C    -1.063599  3.017851  1.673423
  C    -1.030191  6.765383  2.246457
  N     1.213776  3.664946  1.525343
  N     1.190201  7.492162  2.118574
  N    -0.959966  2.965998  0.348139
  N    -0.881282  6.616040  0.943056
  N    -1.485200  2.864779  4.247855
  N    -1.715940  7.206197  4.624023
  S    -2.386642  2.836919  2.809553
  S    -2.338966  6.506472  3.219321
  S     0.580216  3.502603 -0.045105
  S     0.684729  6.999476  0.568051
  S     0.115370  3.401807  4.040100
  S    -0.114735  7.709606  4.550426
