16  
    
  C    -2.300525  2.403178  1.972571
  C    -2.432323  6.211978  2.165018
  C    -3.598863  2.090748  1.415794
  C    -3.504666  5.594158  1.520458
  N    -1.356509  2.541622  1.034310
  N    -1.318122  6.281193  1.395138
  N    -3.596107  1.818667  0.108208
  N    -3.290005  5.146889  0.288492
  N    -3.969033  2.401685  3.903648
  N    -4.125261  5.861215  3.965125
  S    -4.914322  2.017329  2.601513
  S    -4.862249  5.444486  2.526833
  S    -2.053665  2.145451 -0.377795
  S    -1.709367  5.668255 -0.101525
  S    -2.427729  2.861369  3.613011
  S    -2.525754  6.188437  3.879648
