16  
    
  C    -4.145398  1.282778  1.787568
  C    -4.166125  5.278091  1.925046
  C    -5.361839  1.256667  1.043234
  C    -5.428466  5.084944  1.329254
  N    -3.067179  1.261031  1.042945
  N    -3.098633  5.216216  1.113227
  N    -5.273371  1.136019 -0.259262
  N    -5.338024  4.992918  0.018632
  N    -6.017715  1.521850  3.477858
  N    -5.887605  5.081101  3.832179
  S    -6.822745  1.276451  1.986087
  S    -6.796945  4.920254  2.429595
  S    -3.617528  1.156028 -0.559069
  S    -3.709166  4.946248 -0.353878
  S    -4.322410  1.621061  3.446364
  S    -4.204292  5.285239  3.666902
