16  
    
  C    -0.090771  3.729796  2.453611
  C     0.318887  7.444971  2.699766
  C    -1.211684  2.955704  1.957716
  C    -0.915907  7.059521  2.009877
  N     0.979240  3.790047  1.680639
  N     1.367509  7.675425  1.903098
  N    -0.975121  2.590326  0.694710
  N    -0.737988  6.832857  0.706792
  N    -1.769172  3.480027  4.417643
  N    -1.449905  7.252638  4.599601
  S    -2.522884  2.783337  3.075959
  S    -2.212572  6.859990  3.169743
  S     0.513247  3.202405  0.220178
  S     0.847739  7.231790  0.395218
  S    -0.208323  4.061278  4.147258
  S     0.185549  7.626005  4.450383
