16  
    
  C     0.547624  3.460047  2.815934
  C     0.794731  7.691677  2.673334
  C    -0.660066  3.168953  2.047297
  C    -0.432163  7.210495  1.968155
  N     1.522528  3.961955  2.095349
  N     1.774490  8.031836  1.806317
  N    -0.518983  3.085986  0.710474
  N    -0.382955  7.216989  0.633875
  N    -1.338626  3.239475  4.528298
  N    -0.793863  6.761876  4.559964
  S    -1.969911  2.771097  3.120779
  S    -1.599326  6.542044  3.085641
  S     1.132683  3.575049  0.496144
  S     1.099405  7.810235  0.239193
  S     0.280710  3.700014  4.503230
  S     0.673995  7.582093  4.428109
