16  
    
  C    -0.403129  3.298512  2.694880
  C    -0.356689  7.031995  2.476003
  C    -1.396680  2.518614  2.084068
  C    -1.447069  6.413691  1.885290
  N     0.587200  3.656071  1.901737
  N     0.745884  7.111373  1.772623
  N    -1.123605  2.195111  0.835007
  N    -1.218165  6.081218  0.630920
  N    -2.280871  3.056216  4.495960
  N    -2.159735  6.977941  4.249921
  S    -2.808206  2.308703  3.074826
  S    -2.869409  6.364025  2.872776
  S     0.408100  2.818247  0.509292
  S     0.335543  6.617724  0.301920
  S    -0.712517  3.730723  4.375355
  S    -0.561736  7.473939  4.154028
