16  
    
  C    -1.800209  2.377251  2.294781
  C    -1.882692  6.254386  2.263367
  C    -2.983817  1.900728  1.663035
  C    -3.033097  5.599119  1.707460
  N    -0.821785  2.679978  1.457996
  N    -0.905957  6.455875  1.428030
  N    -2.878199  1.741987  0.359252
  N    -3.011963  5.445001  0.410632
  N    -3.578631  2.187649  4.144469
  N    -3.482110  5.959809  4.216133
  S    -4.397768  1.754357  2.743950
  S    -4.231945  5.289967  2.890019
  S    -1.335129  2.186699 -0.026048
  S    -1.454557  5.900663 -0.058611
  S    -1.973747  2.591105  4.024571
  S    -1.978358  6.691410  4.006675
