16  
    
  C     2.377363  4.776671  3.317806
  C     2.370216  8.628037  3.519061
  C     1.115054  4.451301  2.673953
  C     1.122992  8.349807  2.870011
  N     3.379605  5.135495  2.473755
  N     3.413527  8.771589  2.713884
  N     1.272535  4.259102  1.361305
  N     1.221947  8.351602  1.545092
  N     0.522789  4.219414  5.244026
  N     0.671789  8.778138  5.391796
  S    -0.162381  3.845752  3.723991
  S    -0.142208  8.096829  4.041596
  S     2.802803  4.722807  0.902236
  S     2.846551  8.655287  1.122724
  S     2.206519  4.714579  5.090358
  S     2.322919  9.029834  5.172738
