16  
    
  C    -4.167226  1.404460  1.912299
  C    -4.014551  5.176636  1.980847
  C    -5.369961  1.137256  1.235644
  C    -5.316278  4.752023  1.388057
  N    -3.112546  1.407144  1.092959
  N    -2.966006  4.974085  1.180016
  N    -5.288890  1.046428 -0.105749
  N    -5.252125  4.406449  0.092135
  N    -6.003239  1.414476  3.832197
  N    -5.727314  5.327248  3.915832
  S    -6.767541  1.123319  2.350395
  S    -6.598221  4.857983  2.531156
  S    -3.716345  1.192863 -0.449476
  S    -3.645320  4.477731 -0.303222
  S    -4.354693  1.615913  3.659500
  S    -4.112246  5.673122  3.651291
