16  
    
  C     2.977266  5.244613  3.934919
  C     2.672464  8.639249  3.130399
  C     1.702505  4.927533  3.354475
  C     1.367728  8.294136  2.623524
  N     4.010752  5.299904  3.116403
  N     3.646691  8.549284  2.205420
  N     1.762429  4.713215  2.055051
  N     1.336712  7.961569  1.345430
  N     1.234669  5.779617  5.725511
  N     0.905462  8.624589  5.138133
  S     0.351052  5.177915  4.443548
  S     0.054197  8.167975  3.697803
  S     3.357782  4.825462  1.627533
  S     2.839735  8.145875  0.750053
  S     2.900007  5.903920  5.499214
  S     2.548318  8.925855  4.871345
