16  
    
  C     3.100364  5.152040  3.414362
  C     3.398717  9.086639  3.485155
  C     1.985681  4.488038  2.738971
  C     2.108927  8.705247  3.006185
  N     4.053390  5.519055  2.570841
  N     4.373618  9.033811  2.559697
  N     2.151076  4.305536  1.452848
  N     2.083584  8.423660  1.703127
  N     1.150777  4.981110  5.098587
  N     1.616385  8.806796  5.495287
  S     0.609650  4.167540  3.737541
  S     0.790289  8.608564  4.061162
  S     3.638497  4.963485  1.105532
  S     3.580077  8.694471  1.096090
  S     2.773294  5.429053  5.129189
  S     3.241970  9.282915  5.290845
