16  
    
  C    -4.150054  1.384429  1.933700
  C    -4.029611  5.149401  1.998066
  C    -5.379112  1.163866  1.222779
  C    -5.344478  4.733536  1.390894
  N    -3.109529  1.424075  1.114114
  N    -2.987650  4.980719  1.173151
  N    -5.284261  1.042271 -0.101436
  N    -5.266920  4.416638  0.097391
  N    -6.018393  1.421503  3.805738
  N    -5.717083  5.323305  3.893190
  S    -6.774574  1.133005  2.332849
  S    -6.599684  4.876877  2.525494
  S    -3.719252  1.193286 -0.444365
  S    -3.661327  4.496097 -0.285179
  S    -4.356774  1.600622  3.640539
  S    -4.116557  5.659397  3.640740
