16  
    
  C     2.983549  5.285150  3.352165
  C     3.371798  9.131343  3.342640
  C     1.862842  4.615571  2.673054
  C     2.108872  8.678367  2.850594
  N     4.030107  5.501396  2.558174
  N     4.366805  9.129557  2.503313
  N     2.113132  4.384336  1.397029
  N     2.207348  8.388706  1.556097
  N     1.324230  4.687970  5.277905
  N     1.911815  8.985006  5.426462
  S     0.514711  4.296158  3.854087
  S     0.886708  8.595013  4.184689
  S     3.678351  4.894927  1.069449
  S     3.763718  8.644545  1.086661
  S     2.743219  5.541195  5.099517
  S     3.521003  9.238310  5.019108
