16  
    
  C     1.108576  4.476417  3.029852
  C     1.728575  8.439980  2.930282
  C     0.011496  3.906002  2.387183
  C     0.436349  8.141934  2.314115
  N     2.190746  4.634397  2.244498
  N     2.802633  8.350573  2.108824
  N     0.147713  3.927057  1.075741
  N     0.470735  7.971949  0.981491
  N    -0.700418  4.082103  4.834847
  N    -0.071309  8.363574  4.892941
  S    -1.397760  3.641847  3.342055
  S    -0.891513  8.032851  3.459944
  S     1.678687  4.398313  0.707039
  S     2.117369  8.030785  0.637697
  S     0.944422  4.401102  4.734682
  S     1.542851  8.732311  4.697652
