16  
    
  C     3.586914  5.264610  3.557528
  C     3.465396  9.128881  3.537766
  C     2.360843  4.950833  2.900944
  C     2.299264  8.576735  2.919884
  N     4.599991  5.631106  2.771000
  N     4.493649  9.410420  2.751401
  N     2.460429  5.002268  1.559320
  N     2.528579  8.366000  1.617693
  N     1.783854  5.160464  5.495653
  N     1.646144  8.615011  5.361229
  S     1.022528  4.881410  4.069347
  S     0.981414  8.125140  3.862273
  S     4.069263  5.370672  1.216770
  S     3.922506  9.016062  1.268727
  S     3.390954  5.427995  5.309335
  S     3.194272  9.237636  5.296195
