16  
    
  C     2.940456  5.048201  3.596752
  C     3.081590  8.615530  3.570065
  C     1.667107  5.021571  2.929700
  C     1.843463  8.404901  2.854751
  N     3.993816  5.152786  2.786643
  N     4.181378  8.563016  2.745484
  N     1.779452  4.866008  1.601324
  N     1.943530  8.244271  1.535962
  N     1.126354  5.159521  5.497625
  N     0.956299  8.745450  5.235078
  S     0.306149  5.074927  4.099707
  S     0.400655  8.274609  3.722435
  S     3.417462  4.906942  1.251166
  S     3.517991  8.406466  1.223783
  S     2.767606  5.235716  5.377602
  S     2.639407  9.030533  5.272665
