16  
    
  C    -4.243143  1.373224  1.800379
  C    -4.093150  5.106806  1.990840
  C    -5.466810  1.290346  1.052813
  C    -5.405336  4.775752  1.379667
  N    -3.115619  1.416090  1.111876
  N    -3.130191  5.038850  1.057402
  N    -5.266534  1.078467 -0.235846
  N    -5.348623  4.486112  0.076657
  N    -6.120014  1.567393  3.617905
  N    -5.883448  5.368573  3.897570
  S    -6.818069  1.237548  2.158049
  S    -6.738837  5.029294  2.527906
  S    -3.583579  1.152991 -0.518397
  S    -3.773326  4.775865 -0.419679
  S    -4.426777  1.486782  3.571529
  S    -4.229494  5.409350  3.739274
