16  
    
  C     1.090924  4.264469  2.831967
  C     1.574865  8.677091  2.959318
  C    -0.122859  3.855155  2.044373
  C     0.416708  8.110549  2.369821
  N     2.182292  4.663999  2.124541
  N     2.565697  8.925446  2.120807
  N     0.168270  3.598157  0.769658
  N     0.600439  7.877630  1.088569
  N    -0.859360  3.849182  4.500797
  N    -0.105365  8.465001  4.872208
  S    -1.476895  3.343897  3.001113
  S    -0.897705  8.072050  3.515088
  S     1.698636  4.213283  0.532766
  S     2.132209  8.382633  0.590033
  S     0.682697  4.346644  4.495548
  S     1.463705  8.874263  4.659539
