16  
    
  C     0.865985  3.777905  3.066541
  C     1.161082  7.539459  2.935707
  C    -0.386290  3.426284  2.526323
  C     0.019671  7.040669  2.256685
  N     1.823495  3.810943  2.177803
  N     2.233441  7.733175  2.168167
  N    -0.382084  3.220119  1.221499
  N     0.195822  6.687032  0.986769
  N    -0.840942  3.398168  5.048707
  N    -0.744891  7.698539  4.672880
  S    -1.726663  3.243588  3.636098
  S    -1.468718  6.975285  3.343764
  S     1.145371  3.604752  0.716413
  S     1.798554  7.122365  0.709982
  S     0.776662  3.855718  4.828996
  S     0.870648  7.961034  4.643598
