16  
    
  C     0.987146  4.178791  2.632845
  C     1.127027  7.680657  3.152256
  C    -0.142135  3.334126  2.215341
  C    -0.193336  7.262311  2.520681
  N     1.960104  4.106160  1.755093
  N     2.137973  7.700517  2.285883
  N    -0.030292  2.845912  0.988383
  N    -0.133231  7.079980  1.193780
  N    -0.755762  4.335085  4.510704
  N    -0.623403  7.512370  5.070163
  S    -1.471040  3.422493  3.373985
  S    -1.482947  7.187272  3.661459
  S     1.474457  3.342858  0.400807
  S     1.431376  7.333427  0.834308
  S     0.870612  4.777065  4.252017
  S     0.999846  8.018059  4.866320
