16  
    
  C    -4.457640  1.641477  1.936258
  C    -4.669088  5.045622  1.695221
  C    -5.635225  0.983524  1.350092
  C    -5.798172  4.433481  1.063351
  N    -3.445171  1.751884  1.114151
  N    -3.632817  5.295433  0.927630
  N    -5.492701  0.840872  0.024172
  N    -5.686427  4.340728 -0.244584
  N    -6.000518  1.083728  3.930030
  N    -6.385484  4.706182  3.525500
  S    -6.809433  0.637337  2.517188
  S    -7.101695  4.032235  2.158573
  S    -3.992194  1.255003 -0.381893
  S    -4.129664  4.896088 -0.610173
  S    -4.389349  1.780214  3.701249
  S    -4.804421  5.217475  3.390353
