16  
    
  C    -3.390031  1.819167  1.582400
  C    -3.765819  5.521117  1.685459
  C    -4.523057  1.168076  0.966352
  C    -4.953391  4.987509  0.996744
  N    -2.347586  1.837397  0.782645
  N    -2.726710  5.734465  0.864113
  N    -4.436209  0.897004 -0.346509
  N    -4.830366  4.900785 -0.325292
  N    -5.087505  1.445888  3.558382
  N    -5.514665  5.238632  3.549175
  S    -5.856988  0.869433  2.180281
  S    -6.227111  4.795858  2.072786
  S    -2.849878  1.259085 -0.760091
  S    -3.324020  5.416495 -0.661682
  S    -3.575045  2.134305  3.321257
  S    -3.891356  5.581763  3.436561
