16  
    
  C    -5.500261  1.153917  1.299601
  C    -5.284375  5.254476  1.407707
  C    -6.654271  0.504342  0.601415
  C    -6.352973  4.486870  0.744082
  N    -4.436058  1.450617  0.561537
  N    -4.253063  5.568187  0.600900
  N    -6.531028  0.473656 -0.736849
  N    -6.168310  4.242775 -0.552442
  N    -7.303769  0.671510  3.039545
  N    -6.940605  4.419113  3.253956
  S    -7.959979  0.019786  1.657243
  S    -7.551299  3.788494  1.817849
  S    -4.950228  1.025271 -1.024094
  S    -4.680993  4.832814 -0.859927
  S    -5.689861  1.110534  3.083935
  S    -5.477286  5.221957  3.153701
