16  
    
  C     2.197152  4.460387  3.048402
  C     2.042606  8.286045  3.141516
  C     1.039167  3.925373  2.276500
  C     0.854925  7.615898  2.593507
  N     3.352986  4.334179  2.416206
  N     3.088202  8.250781  2.310204
  N     1.290087  3.865835  0.968818
  N     0.936459  7.126807  1.345958
  N     0.241476  4.434760  4.687346
  N     0.077244  8.394156  4.926066
  S    -0.385107  3.863380  3.248489
  S    -0.521273  7.534581  3.584146
  S     2.988666  4.020217  0.824627
  S     2.544637  7.423254  0.939311
  S     1.874127  4.770869  4.751570
  S     1.638077  8.999460  4.724064
