16  
    
  C    -3.387827  1.725535  1.553668
  C    -3.906295  5.375456  1.636286
  C    -4.588421  1.035278  1.054106
  C    -5.126067  4.848133  0.999695
  N    -2.399641  1.953753  0.701570
  N    -2.875373  5.444619  0.799396
  N    -4.479679  0.981108 -0.267734
  N    -5.049994  4.658838 -0.321889
  N    -5.096532  1.513969  3.464040
  N    -5.523023  5.194637  3.575911
  S    -5.913826  0.953221  2.116368
  S    -6.355052  4.574295  2.199360
  S    -3.027509  1.549366 -0.745267
  S    -3.515311  5.117138 -0.745831
  S    -3.566899  2.185188  3.231599
  S    -3.923496  5.576175  3.349496
