16  
    
  C    -0.366512  3.319655  2.562003
  C    -0.298978  6.950262  2.358923
  C    -1.630366  3.054150  2.001149
  C    -1.588033  6.571880  1.802759
  N     0.599080  3.511257  1.681523
  N     0.588627  7.150519  1.365583
  N    -1.663158  3.018690  0.674578
  N    -1.625434  6.395846  0.472495
  N    -1.967209  3.193065  4.523632
  N    -1.942550  6.681838  4.359626
  S    -2.941896  2.953207  3.229131
  S    -2.807775  6.273244  2.977883
  S    -0.051116  3.175992  0.203866
  S    -0.094241  6.768230 -0.080052
  S    -0.400341  3.517262  4.265658
  S    -0.356891  7.123965  4.109433
