16  
    
  C    -4.155124  1.529395  1.940017
  C    -4.014431  5.245284  1.861614
  C    -5.375445  0.962071  1.372179
  C    -5.268515  4.640950  1.283518
  N    -3.220321  1.725385  1.006369
  N    -3.063130  5.371423  0.947552
  N    -5.242159  0.519916  0.097861
  N    -5.171036  4.210314  0.038799
  N    -5.930340  1.737307  3.702086
  N    -5.773319  5.216694  3.609215
  S    -6.700823  0.930106  2.470733
  S    -6.582009  4.562992  2.331827
  S    -3.822290  1.049216 -0.390584
  S    -3.642884  4.615896 -0.437515
  S    -4.310978  2.085096  3.515850
  S    -4.164687  5.664244  3.524640
