16  
    
  C    -0.342399  3.342167  2.640914
  C    -0.311167  6.901594  2.424509
  C    -1.538001  2.677778  2.069968
  C    -1.402016  6.180294  1.905350
  N     0.731620  3.351869  1.850575
  N     0.661289  7.219014  1.571893
  N    -1.430155  2.434711  0.768484
  N    -1.305302  5.914121  0.603771
  N    -2.059285  2.860485  4.632369
  N    -1.992836  6.843210  4.428744
  S    -2.858697  2.486157  3.189936
  S    -2.686996  5.971621  3.207905
  S     0.077627  2.950268  0.320420
  S     0.181744  6.489510  0.095010
  S    -0.498560  3.459281  4.348203
  S    -0.515514  7.499747  4.079892
