16  
    
  C     0.691789  3.919664  2.876301
  C     0.614877  7.593346  2.698939
  C    -0.495918  3.354103  2.305219
  C    -0.603192  6.876199  2.223578
  N     1.729903  3.923430  2.025909
  N     1.555170  7.860097  1.796524
  N    -0.508676  3.281996  0.957242
  N    -0.575112  6.550114  0.951881
  N    -0.984091  3.610975  4.811733
  N    -0.885908  7.296023  4.749109
  S    -1.858243  3.222806  3.403045
  S    -1.769362  6.647135  3.510276
  S     1.052502  3.673707  0.460541
  S     0.926323  7.128761  0.445406
  S     0.620692  3.990778  4.587509
  S     0.487003  8.090460  4.346838
