16  
    
  C     1.702395  4.610001  3.346712
  C     1.361098  8.174094  3.047307
  C     0.514443  4.046619  2.783549
  C     0.318315  7.412814  2.394452
  N     2.740432  4.544064  2.501420
  N     2.312607  8.548640  2.193644
  N     0.546638  3.826795  1.424189
  N     0.562575  7.124094  1.112019
  N     0.020201  4.577623  5.374010
  N    -0.382048  7.561419  4.887333
  S    -0.833882  4.303400  3.939609
  S    -0.996772  7.041019  3.449492
  S     2.110452  4.000146  1.112705
  S     1.895783  7.941801  0.660746
  S     1.665091  4.855335  5.085328
  S     1.194303  8.203531  4.783777
