16  
    
  C    -4.826572  1.136872  1.663804
  C    -4.756085  4.814993  1.850300
  C    -5.888427  0.376271  1.055390
  C    -5.832567  4.130577  1.224717
  N    -3.793242  1.375978  0.813644
  N    -3.764449  5.055595  0.998353
  N    -5.747934  0.300802 -0.280893
  N    -5.683229  3.831953 -0.067224
  N    -6.771899  0.897245  3.478433
  N    -6.556634  4.482729  3.627412
  S    -7.337567  0.113654  2.105898
  S    -7.199164  3.893090  2.226428
  S    -4.301480  0.867412 -0.675851
  S    -4.197402  4.424065 -0.472385
  S    -5.152727  1.433104  3.334374
  S    -5.020074  5.141450  3.584935
