16  
    
  C    -2.603398  2.688933  2.009268
  C    -2.456809  6.149058  2.136854
  C    -3.787474  2.093976  1.518691
  C    -3.603062  5.644118  1.396249
  N    -1.560086  2.722468  1.174017
  N    -1.316262  6.286049  1.398507
  N    -3.743363  1.889453  0.196325
  N    -3.337430  5.349328  0.088337
  N    -4.318109  2.489592  4.000436
  N    -4.407071  6.056835  3.827329
  S    -5.089828  1.902204  2.622907
  S    -4.910067  5.366686  2.386865
  S    -2.175858  2.129548 -0.261209
  S    -1.867243  5.995509 -0.185532
  S    -2.672865  2.878142  3.773821
  S    -2.866098  6.645445  3.764332
