16  
    
  C    -0.309210  3.199545  2.627816
  C    -0.223650  7.102349  2.424683
  C    -1.523544  2.632498  2.043485
  C    -1.347267  6.260963  1.830124
  N     0.640002  3.437679  1.743710
  N     0.743718  7.292596  1.561201
  N    -1.511384  2.461263  0.717819
  N    -1.182057  5.916726  0.574455
  N    -1.944959  2.902489  4.630548
  N    -1.989657  6.732514  4.230283
  S    -2.790554  2.503304  3.237217
  S    -2.598829  5.898657  2.909522
  S     0.027634  2.927599  0.245179
  S     0.190148  6.644844  0.085629
  S    -0.292382  3.299513  4.382926
  S    -0.427435  7.346413  4.083211
