16  
    
  C     0.885331  3.885635  2.517115
  C     1.583928  8.202623  3.263840
  C    -0.361099  3.480303  1.869668
  C     0.276853  8.004399  2.610748
  N     1.805915  4.202582  1.606269
  N     2.568595  8.325872  2.364445
  N    -0.184324  3.141606  0.602802
  N     0.278168  7.931502  1.265126
  N    -0.836031  3.727049  4.373957
  N    -0.226242  8.129661  5.156381
  S    -1.595143  3.152846  3.017810
  S    -1.085817  7.974235  3.768607
  S     1.330600  3.652178  0.191395
  S     1.912918  8.200786  0.871477
  S     0.748799  4.183528  4.180505
  S     1.416677  8.171894  5.050131
