16  
    
  C    -1.859772  2.586518  2.121228
  C    -1.888661  6.333513  2.224702
  C    -3.052228  2.019378  1.522920
  C    -3.015835  5.640265  1.720804
  N    -0.812793  2.592483  1.267327
  N    -0.905248  6.643625  1.370426
  N    -2.952764  1.748136  0.208846
  N    -2.804398  5.241259  0.481084
  N    -3.478925  2.143199  4.050095
  N    -3.599495  6.199120  4.156967
  S    -4.331377  1.855866  2.672273
  S    -4.236049  5.298066  2.905265
  S    -1.369820  2.162372 -0.200861
  S    -1.360605  5.939932 -0.086605
  S    -1.895208  2.573091  3.850138
  S    -2.093703  6.822144  3.822271
