16  
    
  C    -3.163783  1.732334  2.006591
  C    -3.196351  5.548477  2.122066
  C    -4.386154  1.401466  1.372858
  C    -4.270696  4.857987  1.483076
  N    -2.167767  2.070465  1.181504
  N    -2.211170  5.841245  1.270767
  N    -4.304497  1.325123  0.036639
  N    -4.182204  4.714058  0.150582
  N    -5.045357  1.582344  3.818756
  N    -4.812255  5.042708  3.952998
  S    -5.749948  1.243214  2.394503
  S    -5.571860  4.555156  2.565633
  S    -2.775674  1.765957 -0.332627
  S    -2.628206  5.362141 -0.206071
  S    -3.459951  1.904143  3.734525
  S    -3.330893  5.892863  3.840700
