16  
    
  C     0.954026  4.176624  2.608950
  C     1.355141  7.938896  3.233592
  C    -0.064973  3.348873  1.891404
  C     0.091941  7.649251  2.585658
  N     2.088078  4.358058  1.881169
  N     2.319842  8.007375  2.338912
  N     0.210048  3.209686  0.583625
  N     0.158868  7.404321  1.302057
  N    -0.943029  3.901273  4.259920
  N    -0.451932  7.967137  5.082829
  S    -1.524733  3.223475  2.821207
  S    -1.243390  7.691310  3.633778
  S     1.750498  3.776792  0.369713
  S     1.741091  7.706029  0.808617
  S     0.607094  4.379281  4.279040
  S     1.163338  8.122780  4.921773
