16  
    
  C    -1.542846  3.338409  2.016259
  C    -1.008971  6.981229  2.429225
  C    -2.530221  2.484147  1.401984
  C    -2.349862  6.822789  1.808055
  N    -0.566238  3.644410  1.170128
  N    -0.004972  7.072496  1.592121
  N    -2.299081  2.201429  0.108332
  N    -2.314833  6.668033  0.480085
  N    -3.197948  2.714036  3.876534
  N    -2.618763  6.609367  4.377128
  S    -3.873908  2.099277  2.466835
  S    -3.562111  6.658470  3.012229
  S    -0.955717  3.027182 -0.321311
  S    -0.675557  6.748205  0.123179
  S    -1.703597  3.421334  3.671094
  S    -1.018893  7.111127  4.153957
