16  
    
  C    -3.439441  1.780462  1.606023
  C    -3.889525  5.268429  1.613096
  C    -4.696597  1.266321  0.963330
  C    -5.135170  4.825701  1.060691
  N    -2.476122  2.098729  0.757689
  N    -2.937307  5.411879  0.688399
  N    -4.576327  1.049584 -0.354688
  N    -5.120103  4.587027 -0.250435
  N    -5.179454  1.589523  3.551554
  N    -5.559865  5.081912  3.571315
  S    -5.887724  0.962611  2.192338
  S    -6.340796  4.512710  2.233135
  S    -3.059415  1.666101 -0.814712
  S    -3.579095  4.965942 -0.713756
  S    -3.639089  2.155997  3.312580
  S    -4.017213  5.572595  3.312024
