16  
    
  C    -3.601423  1.762119  2.054442
  C    -3.339696  5.326797  2.066643
  C    -4.674037  1.008641  1.396742
  C    -4.622389  4.938871  1.497601
  N    -2.512901  1.940562  1.306380
  N    -2.377473  5.286176  1.145496
  N    -4.404856  0.809755  0.114060
  N    -4.612076  4.607475  0.228697
  N    -5.546966  1.480582  3.743519
  N    -5.011777  5.359642  3.994918
  S    -6.140963  0.864752  2.351235
  S    -5.923799  4.924087  2.639396
  S    -2.856915  1.319443 -0.174143
  S    -3.030673  4.928837 -0.323327
  S    -4.008468  1.987795  3.715777
  S    -3.431345  5.747841  3.824662
