16  
    
  C    -5.891367  0.797407  1.551619
  C    -6.063227  4.386023  1.718071
  C    -7.054499  0.194941  0.917114
  C    -7.338319  4.078662  0.933335
  N    -5.030126  1.251740  0.662225
  N    -4.971890  4.660702  1.005958
  N    -7.012238  0.032092 -0.414944
  N    -7.076804  4.026433 -0.378336
  N    -7.498306  0.304306  3.506876
  N    -7.986662  4.094679  3.481586
  S    -8.359488 -0.186048  2.060936
  S    -8.713893  3.909903  1.992955
  S    -5.627269  0.818177 -0.822982
  S    -5.495261  4.467082 -0.548975
  S    -6.010825  1.100839  3.259988
  S    -6.403751  4.634282  3.392461
