16  
    
  C    -1.818288  2.362863  2.051926
  C    -1.831367  6.043456  2.068614
  C    -3.009984  1.952476  1.284061
  C    -3.075370  5.719097  1.452876
  N    -0.728460  2.326009  1.292354
  N    -0.826563  6.327244  1.268411
  N    -2.833943  1.844099 -0.038688
  N    -2.973512  5.511004  0.158440
  N    -3.676466  2.059363  3.782503
  N    -3.562303  5.811679  4.012144
  S    -4.421485  1.852578  2.302623
  S    -4.467475  5.732831  2.590937
  S    -1.236486  2.117829 -0.304025
  S    -1.348490  5.828638 -0.191741
  S    -2.038274  2.408815  3.748794
  S    -1.964107  6.232176  3.809250
