16  
    
  C     3.203652  5.169845  3.479763
  C     3.399284  8.912683  3.667508
  C     1.911118  4.730909  2.922284
  C     2.059550  8.805758  3.108886
  N     4.232404  4.967758  2.634458
  N     4.382359  8.739963  2.824264
  N     2.000460  4.512382  1.599335
  N     2.089208  8.513685  1.817074
  N     1.401080  5.083935  5.382147
  N     1.819136  9.113145  5.638209
  S     0.562382  4.709666  3.988439
  S     0.851217  9.129420  4.319531
  S     3.558115  4.668743  1.154101
  S     3.680702  8.281282  1.401941
  S     3.028944  5.347907  5.282005
  S     3.423559  9.222543  5.433121
