16  
    
  C    -1.831747  2.344237  2.471151
  C    -1.783576  6.195156  2.248454
  C    -3.002310  1.959563  1.763705
  C    -3.025442  5.672968  1.747946
  N    -0.785766  2.554535  1.685765
  N    -0.755120  6.325334  1.374010
  N    -2.838876  1.714304  0.460657
  N    -3.009397  5.493204  0.408046
  N    -3.677102  2.132692  4.281560
  N    -3.421138  5.693497  4.299168
  S    -4.349471  1.657758  2.831371
  S    -4.286752  5.370309  2.945569
  S    -1.325015  2.245410  0.122384
  S    -1.501954  5.937132 -0.062516
  S    -2.097901  2.597248  4.177148
  S    -1.924873  6.360158  4.019319
