16  
    
  C    -4.139966  1.346653  1.946609
  C    -4.076421  5.057877  1.997417
  C    -5.438627  1.217593  1.231898
  C    -5.349350  4.722948  1.411828
  N    -3.084898  1.459716  1.145249
  N    -3.058368  5.004486  1.156259
  N    -5.302483  1.033792 -0.072794
  N    -5.297583  4.433933  0.122366
  N    -6.034162  1.437616  3.718200
  N    -5.715523  5.314844  3.839091
  S    -6.791153  1.155500  2.286195
  S    -6.612605  4.919887  2.522031
  S    -3.706091  1.194385 -0.428797
  S    -3.688909  4.542091 -0.249474
  S    -4.357678  1.567952  3.603945
  S    -4.124752  5.623586  3.615824
