16  
    
  C     1.032654  4.177275  2.565780
  C     1.097946  7.694692  3.162173
  C    -0.121246  3.402235  2.166855
  C    -0.150644  7.391521  2.592629
  N     2.088858  4.184965  1.779106
  N     2.090605  7.829103  2.271589
  N     0.094254  2.886697  0.971653
  N    -0.094655  7.189083  1.287407
  N    -0.742507  4.336215  4.487931
  N    -0.600595  7.594036  5.023676
  S    -1.489809  3.380739  3.292919
  S    -1.494954  7.267861  3.676163
  S     1.534167  3.415307  0.396867
  S     1.490813  7.410241  0.791143
  S     0.800379  4.750587  4.183534
  S     0.997131  8.042299  4.869624
