16  
    
  C    -2.635504  2.506028  2.232172
  C    -2.718720  6.433416  1.943307
  C    -3.789361  1.848146  1.666657
  C    -3.780735  5.817166  1.219689
  N    -1.688185  2.865240  1.358248
  N    -1.630322  6.656536  1.230808
  N    -3.691895  1.652323  0.374616
  N    -3.499208  5.502436  0.013932
  N    -4.375919  2.303839  4.123558
  N    -4.533777  5.955032  3.710516
  S    -5.165034  1.714995  2.774902
  S    -5.052811  5.382420  2.276628
  S    -2.267030  2.361512 -0.114602
  S    -1.931560  6.181598 -0.296740
  S    -2.835671  2.873536  3.930482
  S    -2.986377  6.479207  3.725655
