16  
    
  C    -5.459322  1.219092  1.265327
  C    -5.467132  4.848161  1.615512
  C    -6.558389  0.603791  0.641154
  C    -6.672023  4.397765  0.943857
  N    -4.399774  1.456969  0.473433
  N    -4.452285  4.985091  0.755156
  N    -6.407781  0.528811 -0.682601
  N    -6.564710  4.341170 -0.382654
  N    -7.137710  0.653863  3.112324
  N    -7.284029  4.694944  3.348159
  S    -7.781220  0.091286  1.737924
  S    -7.980423  4.112239  1.955445
  S    -4.887683  1.012820 -1.053764
  S    -4.998749  4.742093 -0.781198
  S    -5.608600  1.169987  3.001627
  S    -5.626468  4.918534  3.337398
