16  
    
  C     1.106369  4.468365  3.023150
  C     1.728976  8.450953  2.928713
  C     0.010607  3.906962  2.375141
  C     0.438384  8.139417  2.315487
  N     2.185689  4.643972  2.241385
  N     2.804699  8.358512  2.112706
  N     0.154186  3.923537  1.065661
  N     0.473863  7.967171  0.980763
  N    -0.711124  4.073383  4.830945
  N    -0.069498  8.364533  4.888724
  S    -1.396203  3.641279  3.336654
  S    -0.888699  8.032678  3.457487
  S     1.682510  4.394004  0.709521
  S     2.112056  8.039588  0.636745
  S     0.940065  4.397993  4.730802
  S     1.541663  8.740832  4.696751
