16  
    
  C    -1.797322  2.416792  1.941391
  C    -1.834110  6.449101  2.191422
  C    -3.026515  2.032368  1.375652
  C    -2.842067  5.635147  1.636186
  N    -0.766281  2.400170  1.079405
  N    -0.995162  6.846872  1.256589
  N    -3.041352  2.000952  0.030475
  N    -2.702655  5.185642  0.420090
  N    -3.372445  2.141460  3.919083
  N    -3.505731  6.043877  4.056161
  S    -4.259490  1.865405  2.553186
  S    -4.180923  5.482874  2.651079
  S    -1.431687  2.208508 -0.396317
  S    -1.244063  5.869633 -0.082816
  S    -1.801196  2.591431  3.699555
  S    -2.172194  7.003981  3.763572
