16  
    
  C    -0.899381  3.145127  2.470535
  C    -0.606590  6.567089  2.420601
  C    -2.109231  2.715216  1.832536
  C    -1.856686  6.220014  1.753160
  N     0.131387  3.090693  1.631548
  N     0.370091  6.797980  1.567736
  N    -2.082274  2.677298  0.486556
  N    -1.741183  5.971899  0.462617
  N    -2.632549  3.011506  4.361974
  N    -2.542110  6.333268  4.173520
  S    -3.435956  2.679570  2.961217
  S    -3.260377  6.031485  2.739940
  S    -0.484273  2.809046  0.110048
  S    -0.087168  6.183806  0.076985
  S    -1.031181  3.388759  4.188390
  S    -0.920493  6.647747  4.164545
