16  
    
  C    -1.744414  2.401105  1.978570
  C    -1.866302  6.472064  2.154652
  C    -3.064663  2.078183  1.397628
  C    -2.894491  5.550304  1.661244
  N    -0.769473  2.529792  1.113072
  N    -0.963537  6.811617  1.242811
  N    -3.022885  1.972323  0.087721
  N    -2.665108  5.157083  0.384459
  N    -3.404910  2.094563  3.961675
  N    -3.559307  6.113006  4.105002
  S    -4.302005  1.875051  2.586756
  S    -4.196898  5.432285  2.723852
  S    -1.422282  2.157868 -0.379231
  S    -1.283930  5.879761 -0.117816
  S    -1.811628  2.604594  3.717914
  S    -2.158079  6.995307  3.849988
