16  
    
  C     3.260049  4.921972  3.481043
  C     3.498586  8.944616  3.827855
  C     2.002283  4.804425  2.807450
  C     2.281454  8.772792  3.049697
  N     4.286317  5.013535  2.616136
  N     4.536965  9.069420  3.009688
  N     2.076950  4.464166  1.511560
  N     2.312471  8.764599  1.745560
  N     1.344886  5.160896  5.302780
  N     1.450237  9.284755  5.488589
  S     0.611105  4.740694  3.850955
  S     0.863734  8.849952  3.981068
  S     3.669501  4.779830  1.112541
  S     3.995776  8.831554  1.409010
  S     2.971528  5.218251  5.204867
  S     3.151486  9.221380  5.537994
