16  
    
  C     0.545269  3.801877  2.958175
  C     0.573745  7.569959  2.880149
  C    -0.725604  3.574790  2.384088
  C    -0.530222  7.097690  2.115435
  N     1.510151  3.842715  2.045313
  N     1.701601  7.615099  2.182257
  N    -0.769853  3.190599  1.113281
  N    -0.281528  6.920555  0.836649
  N    -1.083755  3.725630  4.978567
  N    -1.305799  7.253706  4.491739
  S    -1.980015  3.295922  3.570345
  S    -1.988587  6.916819  2.973833
  S     0.854677  3.415235  0.579308
  S     1.387423  7.246705  0.605746
  S     0.470839  4.076045  4.688664
  S     0.281784  7.707315  4.543695
