16  
    
  C     1.981244  4.406878  3.348893
  C     1.671940  7.680078  3.062467
  C     0.781784  3.970784  2.688104
  C     0.442979  7.467648  2.408290
  N     2.945013  4.824237  2.564595
  N     2.717844  7.889149  2.235352
  N     0.836916  3.996624  1.386810
  N     0.544121  7.410656  1.083181
  N     0.283561  4.002016  5.237087
  N    -0.163042  7.505744  4.870290
  S    -0.551457  3.700134  3.807449
  S    -0.937134  7.357725  3.387273
  S     2.399953  4.612407  0.982242
  S     2.087845  7.802708  0.697793
  S     1.911205  4.400424  5.066160
  S     1.495639  7.645645  4.800838
