16  
    
  C    -0.696226  3.056110  2.444229
  C    -0.968222  6.366053  2.522017
  C    -1.932322  2.547153  1.863775
  C    -2.142640  5.902360  1.832030
  N     0.258163  3.239464  1.539329
  N     0.117043  6.477051  1.765718
  N    -1.906426  2.475760  0.550624
  N    -1.982843  5.801977  0.530450
  N    -2.408635  2.726998  4.325063
  N    -2.869129  6.354681  4.207662
  S    -3.273763  2.520511  2.986310
  S    -3.470026  5.673679  2.787693
  S    -0.361170  2.766820  0.074793
  S    -0.374426  6.241846  0.213172
  S    -0.863903  3.231101  4.201967
  S    -1.227262  6.633414  4.194538
