16  
    
  C    -1.876433  2.451151  2.479544
  C    -1.725406  5.770109  2.377639
  C    -3.119209  2.235805  1.860296
  C    -2.886932  5.500534  1.619472
  N    -0.806826  2.577533  1.706856
  N    -0.656492  6.008341  1.638968
  N    -3.038720  2.238521  0.527441
  N    -2.710075  5.675150  0.298713
  N    -3.644136  2.244515  4.336531
  N    -3.623910  5.622224  4.029970
  S    -4.490057  1.968665  2.897907
  S    -4.316465  5.322516  2.553298
  S    -1.392446  2.421267  0.140758
  S    -1.098220  5.882141  0.058448
  S    -2.000391  2.504036  4.222982
  S    -1.974703  5.951704  4.148576
