16  
    
  C    -5.530569  1.070319  1.347493
  C    -5.093196  4.963456  1.331473
  C    -6.657491  0.440023  0.638791
  C    -6.130597  4.171485  0.761314
  N    -4.471800  1.317730  0.571592
  N    -4.146189  5.456778  0.485205
  N    -6.582597  0.366793 -0.734504
  N    -6.086470  4.102841 -0.596548
  N    -7.238435  0.516251  3.167235
  N    -6.719714  4.442430  3.314751
  S    -7.981996  0.082610  1.780791
  S    -7.454930  3.813872  1.954514
  S    -4.979522  0.904564 -1.009668
  S    -4.749634  4.979090 -1.020475
  S    -5.722682  1.194774  3.096157
  S    -5.357792  5.331873  3.025854
