16  
    
  C    -0.101556  3.740647  2.436285
  C     0.330532  7.448828  2.708876
  C    -1.193848  2.948549  1.970183
  C    -0.899807  7.057851  2.007888
  N     0.986638  3.798111  1.672633
  N     1.382189  7.664994  1.912048
  N    -0.981167  2.601576  0.681854
  N    -0.724913  6.813014  0.700821
  N    -1.774468  3.476745  4.404397
  N    -1.463895  7.256090  4.605708
  S    -2.531981  2.799389  3.079812
  S    -2.206811  6.848829  3.179886
  S     0.505199  3.200144  0.218752
  S     0.839186  7.229885  0.385529
  S    -0.203878  4.057340  4.138856
  S     0.180999  7.639433  4.462525
