16  
    
  C    -0.072425  3.705329  2.488080
  C     0.300514  7.444873  2.688154
  C    -1.230700  2.973238  1.932059
  C    -0.932153  7.059803  2.021652
  N     0.968921  3.784905  1.691579
  N     1.341567  7.687029  1.892468
  N    -0.970426  2.573968  0.709439
  N    -0.758030  6.864762  0.719360
  N    -1.759272  3.484644  4.434836
  N    -1.427250  7.247756  4.587798
  S    -2.508169  2.759361  3.070582
  S    -2.222513  6.876664  3.153955
  S     0.523713  3.203889  0.223215
  S     0.861103  7.234954  0.406915
  S    -0.216406  4.067056  4.161215
  S     0.191531  7.605699  4.430417
