16  
    
  C    -4.710908  1.007604  1.429588
  C    -4.624790  4.625305  1.962029
  C    -5.925956  0.669879  0.729248
  C    -5.869306  4.256351  1.337789
  N    -3.676094  1.025773  0.629245
  N    -3.612392  4.747328  1.108138
  N    -5.768902  0.669343 -0.616486
  N    -5.767158  4.049413  0.037126
  N    -6.620905  0.911954  3.282326
  N    -6.573490  4.593571  3.749833
  S    -7.292812  0.451903  1.800730
  S    -7.259366  4.117039  2.334415
  S    -4.218574  0.951738 -0.926430
  S    -4.232727  4.503802 -0.435777
  S    -4.908053  1.154196  3.182728
  S    -4.924996  4.876187  3.686560
