16  
    
  C    -1.175745  2.981011  2.316097
  C    -0.946683  7.094303  2.347807
  C    -2.473077  2.934609  1.699865
  C    -2.196651  6.656781  1.809035
  N    -0.192070  2.956693  1.435469
  N     0.049211  7.110346  1.473696
  N    -2.450818  2.696455  0.390862
  N    -2.210757  6.391310  0.481299
  N    -2.871054  3.180517  4.207141
  N    -2.558518  6.606707  4.434202
  S    -3.796713  2.787458  2.895811
  S    -3.430178  6.557440  3.028679
  S    -0.868454  2.831456 -0.046110
  S    -0.651687  6.775531 -0.058059
  S    -1.257689  3.267556  3.983156
  S    -0.934585  6.950916  4.131279
