16  
    
  C     2.998698  5.279161  3.369436
  C     3.605217  9.031337  3.343096
  C     1.855510  4.618437  2.750670
  C     2.285373  8.629037  2.883101
  N     4.036371  5.476700  2.605468
  N     4.543299  9.132600  2.416717
  N     2.030269  4.449055  1.455335
  N     2.229034  8.304997  1.584478
  N     1.324441  4.804485  5.242595
  N     1.965028  9.003332  5.408863
  S     0.576578  4.316753  3.853501
  S     1.070223  8.584621  4.077182
  S     3.623677  4.947580  1.132896
  S     3.784969  8.717427  0.951185
  S     2.815627  5.532946  5.044075
  S     3.542258  9.345260  5.123914
