16  
    
  C    -0.754690  3.128932  2.684140
  C    -1.223137  6.494273  2.566647
  C    -1.965950  2.588074  2.029747
  C    -2.376351  5.979410  1.838760
  N     0.309755  3.198064  1.873951
  N    -0.301457  6.990136  1.732253
  N    -1.796629  2.249868  0.759725
  N    -2.244240  5.892760  0.517488
  N    -2.526966  3.046406  4.535277
  N    -3.151199  6.034790  4.333825
  S    -3.305286  2.698227  3.124307
  S    -3.790527  5.560673  2.894825
  S    -0.216809  2.650719  0.370982
  S    -0.761706  6.469534  0.201791
  S    -0.879560  3.302306  4.379928
  S    -1.581535  6.581297  4.320134
