16  
    
  C     1.957494  4.226546  3.082079
  C     1.994959  7.988820  3.107316
  C     0.629246  4.117991  2.477472
  C     0.778443  7.622418  2.422464
  N     2.965807  4.215508  2.220073
  N     3.082489  8.161880  2.332826
  N     0.680973  3.835546  1.200400
  N     0.879837  7.475809  1.100345
  N     0.214109  4.248707  5.056633
  N     0.189632  7.554078  4.932331
  S    -0.675967  3.976529  3.644613
  S    -0.548713  7.248704  3.465489
  S     2.302301  3.956504  0.724740
  S     2.504851  7.868522  0.769478
  S     1.867729  4.614146  4.802239
  S     1.765073  8.048790  4.869770
