16  
    
  C    -4.109715  1.408186  1.679333
  C    -4.142700  5.250937  1.912568
  C    -5.315864  1.182582  0.986913
  C    -5.386584  5.155712  1.226277
  N    -3.028028  1.233601  0.956528
  N    -3.049275  5.215786  1.164003
  N    -5.197624  1.151208 -0.356723
  N    -5.304563  5.101483 -0.114419
  N    -5.961018  1.549668  3.524561
  N    -5.899658  4.854874  3.845474
  S    -6.723171  1.323276  2.109729
  S    -6.688239  4.918455  2.397294
  S    -3.578501  1.133175 -0.656658
  S    -3.640582  5.204045 -0.420697
  S    -4.307199  1.674510  3.402943
  S    -4.279722  5.269553  3.701758
