16  
    
  C    -4.155662  1.391126  1.926795
  C    -4.024066  5.159578  1.993370
  C    -5.374061  1.154915  1.226300
  C    -5.336657  4.738767  1.389660
  N    -3.111121  1.418336  1.107397
  N    -2.979659  4.978224  1.175772
  N    -5.284883  1.043796 -0.103658
  N    -5.262108  4.413312  0.094914
  N    -6.013714  1.419214  3.815601
  N    -5.720034  5.324664  3.901122
  S    -6.772292  1.129780  2.338832
  S    -6.599079  4.870572  2.527116
  S    -3.718858  1.193150 -0.446130
  S    -3.656309  4.489824 -0.291231
  S    -4.356252  1.605639  3.646871
  S    -4.115107  5.664104  3.644344
