16  
    
  C    -5.381889  0.958435  1.770993
  C    -5.131281  4.650491  1.396698
  C    -6.593679  0.736451  1.065254
  C    -6.356823  4.291657  0.793892
  N    -4.361660  1.064333  0.920106
  N    -4.119564  4.785114  0.554859
  N    -6.454152  0.512092 -0.263151
  N    -6.232937  4.098811 -0.501482
  N    -7.133898  1.014671  3.577306
  N    -7.010032  5.068427  3.130821
  S    -7.942600  0.629460  2.163153
  S    -7.793137  4.488897  1.744889
  S    -4.905788  0.823998 -0.588650
  S    -4.653708  4.445995 -0.980844
  S    -5.525875  1.341830  3.461105
  S    -5.381752  5.222728  3.009910
