16  
    
  C    -0.398130  3.422948  2.654838
  C    -0.216370  7.081361  2.524976
  C    -1.441096  2.540155  2.094094
  C    -1.414589  6.608123  1.797323
  N     0.696144  3.483419  1.904330
  N     0.850816  7.151207  1.693670
  N    -1.129050  2.151980  0.861451
  N    -1.172153  6.356738  0.514665
  N    -2.264858  3.087250  4.485070
  N    -2.251436  6.897633  4.218807
  S    -2.781909  2.288925  3.102411
  S    -2.838098  6.529283  2.738199
  S     0.348057  2.801211  0.450202
  S     0.426346  6.671303  0.182210
  S    -0.690809  3.765555  4.347579
  S    -0.686159  7.376374  4.215809
