16  
    
  C     0.567523  3.987980  2.971611
  C     0.676380  7.467705  2.781402
  C    -0.531248  3.168938  2.452181
  C    -0.495962  6.948580  2.093687
  N     1.603576  4.020080  2.126115
  N     1.748468  7.656600  2.035929
  N    -0.402074  2.840138  1.123080
  N    -0.309034  6.716031  0.808210
  N    -1.197609  4.007282  4.813037
  N    -1.063587  7.215551  4.601680
  S    -1.897719  3.294466  3.543117
  S    -1.879380  6.774732  3.239424
  S     1.090124  3.326154  0.697019
  S     1.194827  7.220656  0.508663
  S     0.453417  4.341015  4.647018
  S     0.484974  7.837181  4.492207
