16  
    
  C     3.198102  5.023537  3.531014
  C     3.469080  8.926152  3.719642
  C     1.950803  4.733373  2.918380
  C     2.102409  8.862214  3.189247
  N     4.195758  5.031756  2.629545
  N     4.405152  8.697668  2.788529
  N     1.944316  4.458222  1.631050
  N     1.977682  8.443111  1.936865
  N     1.421052  5.050071  5.375882
  N     1.786147  9.201979  5.623867
  S     0.554428  4.699389  3.967916
  S     0.843242  9.097648  4.302435
  S     3.531255  4.679932  1.166317
  S     3.595936  8.239269  1.377701
  S     3.056214  5.383632  5.278110
  S     3.433918  9.195071  5.435722
