16  
    
  C    -1.526897  2.647182  2.283071
  C    -1.474239  6.459545  2.247399
  C    -2.650292  2.116495  1.608020
  C    -2.684541  5.919577  1.671047
  N    -0.381112  2.723951  1.616187
  N    -0.476452  6.694049  1.403317
  N    -2.355930  1.858557  0.347311
  N    -2.642443  5.703965  0.326279
  N    -3.451251  2.456876  4.034801
  N    -3.173391  6.224101  4.216166
  S    -4.046903  1.776494  2.619303
  S    -4.042066  5.880529  2.831318
  S    -0.802425  2.301576  0.065282
  S    -1.043759  6.145142 -0.109469
  S    -1.881636  3.045230  3.993229
  S    -1.571787  6.675935  4.075941
