16  
    
  C    -5.332676  1.299869  1.464457
  C    -5.350342  4.591375  1.569024
  C    -6.594309  0.917630  0.875415
  C    -6.628500  4.132099  1.051023
  N    -4.306727  1.185393  0.612368
  N    -4.415272  4.656808  0.662334
  N    -6.524415  0.696299 -0.415016
  N    -6.639766  3.934518 -0.258799
  N    -7.062781  1.104544  3.344531
  N    -6.848055  4.848927  3.499799
  S    -7.953580  0.812866  1.978220
  S    -7.795171  4.068167  2.320408
  S    -4.941018  0.753407 -0.841459
  S    -5.088789  4.316209 -0.791973
  S    -5.493467  1.317655  3.146850
  S    -5.195419  4.765458  3.286457
