16  
    
  C     0.939032  4.088501  2.537156
  C     1.437766  7.855135  3.256614
  C    -0.139891  3.426451  1.882329
  C     0.167292  7.665629  2.621722
  N     2.051814  4.242209  1.826861
  N     2.460626  7.900761  2.403286
  N     0.095678  3.257823  0.604155
  N     0.226685  7.659790  1.281896
  N    -0.964451  3.689520  4.326334
  N    -0.295665  7.932985  5.147061
  S    -1.617437  3.238620  2.812050
  S    -1.198534  7.714792  3.707451
  S     1.614642  3.820594  0.281216
  S     1.875195  7.769345  0.900214
  S     0.598873  4.152748  4.271151
  S     1.361420  8.054256  4.944234
