16  
    
  C    -4.183913  1.540629  1.850625
  C    -3.890677  5.147946  1.933581
  C    -5.417773  1.103282  1.330116
  C    -5.094811  4.524861  1.369575
  N    -3.191463  1.697637  0.957314
  N    -2.862771  5.252732  1.096033
  N    -5.281152  0.651271  0.056900
  N    -4.888093  4.069450  0.136303
  N    -5.856375  1.697773  3.851216
  N    -5.695403  5.369246  3.757769
  S    -6.645946  0.952737  2.584329
  S    -6.510583  4.687060  2.493550
  S    -3.806479  1.040165 -0.497579
  S    -3.381968  4.627561 -0.411140
  S    -4.232241  1.894163  3.669368
  S    -4.112583  5.729130  3.597128
