16  
    
  C    -2.697823  2.538629  2.316392
  C    -2.721891  6.474103  1.959728
  C    -3.766849  1.853071  1.699003
  C    -3.787519  5.803502  1.225073
  N    -1.781145  2.891930  1.426357
  N    -1.653485  6.782666  1.226035
  N    -3.738593  1.701708  0.384216
  N    -3.512290  5.565621  0.000029
  N    -4.393511  2.206617  4.212476
  N    -4.528030  5.685083  3.715148
  S    -5.087423  1.572737  2.802645
  S    -5.189413  5.328368  2.202221
  S    -2.294572  2.394191 -0.052555
  S    -2.037960  6.131333 -0.333427
  S    -2.870458  2.876908  4.015104
  S    -2.969674  6.370359  3.682061
