16  
    
  C     2.039887  4.348941  3.073559
  C     1.972388  7.934622  3.142129
  C     0.793647  3.941014  2.469039
  C     0.823975  7.579375  2.414300
  N     3.033214  4.297251  2.205056
  N     3.080552  8.013957  2.424362
  N     0.765721  3.890862  1.156289
  N     1.058183  7.504830  1.106449
  N     0.308759  4.249081  4.967511
  N     0.157401  7.701643  4.904668
  S    -0.585063  3.967055  3.591916
  S    -0.583811  7.327732  3.473317
  S     2.331164  3.905057  0.719633
  S     2.624783  7.839865  0.850386
  S     1.822993  4.737715  4.739334
  S     1.767062  8.182378  4.798179
