16  
    
  C    -3.461580  1.786777  1.593142
  C    -3.874897  5.275216  1.614400
  C    -4.715005  1.286856  0.966583
  C    -5.133507  4.806252  1.069133
  N    -2.467856  2.117203  0.758855
  N    -2.931462  5.415563  0.683369
  N    -4.579907  1.064181 -0.351607
  N    -5.114967  4.590930 -0.256381
  N    -5.193163  1.588979  3.567969
  N    -5.556721  5.077493  3.586277
  S    -5.882332  0.963996  2.194554
  S    -6.355013  4.504080  2.236392
  S    -3.064786  1.674078 -0.814320
  S    -3.584113  4.950717 -0.715431
  S    -3.642919  2.153194  3.318986
  S    -4.026058  5.571252  3.308507
