16  
    
  C    -1.262204  3.437597  2.098519
  C    -1.049749  7.059842  2.647106
  C    -2.405822  2.723987  1.647186
  C    -2.349605  6.903352  1.989669
  N    -0.307382  3.697628  1.201182
  N    -0.030848  7.260827  1.787323
  N    -2.389085  2.553864  0.320426
  N    -2.308588  6.762324  0.633898
  N    -2.733907  2.918052  4.188349
  N    -2.797193  6.605240  4.455777
  S    -3.601612  2.406560  2.821322
  S    -3.664879  6.640846  3.061735
  S    -0.961299  3.174029 -0.251189
  S    -0.733328  6.847785  0.333695
  S    -1.144779  3.433697  3.859953
  S    -1.179148  7.029467  4.344360
