16  
    
  C    -5.374144  1.182969  1.691894
  C    -5.146354  4.742293  1.416561
  C    -6.643392  0.876424  1.078586
  C    -6.381763  4.372961  0.782718
  N    -4.314520  1.068407  0.885479
  N    -4.111920  4.732764  0.587084
  N    -6.605727  0.734414 -0.262127
  N    -6.333044  4.058048 -0.516922
  N    -7.217169  0.996248  3.552239
  N    -6.989026  5.166268  3.107369
  S    -8.023000  0.688473  2.123066
  S    -7.754749  4.484201  1.798223
  S    -4.945504  0.750446 -0.639129
  S    -4.753407  4.332030 -0.909467
  S    -5.549164  1.285291  3.374282
  S    -5.288927  5.144039  3.120514
