16  
    
  C     0.821539  4.174039  2.431837
  C     1.530256  8.268213  3.239208
  C    -0.274176  3.404994  1.897807
  C     0.274502  8.044189  2.639503
  N     1.957506  4.266173  1.679325
  N     2.543376  8.419774  2.417194
  N    -0.164892  3.098780  0.604866
  N     0.325861  8.088381  1.320724
  N    -0.879732  3.800982  4.385423
  N    -0.272472  8.210907  5.139276
  S    -1.614825  3.122220  3.021463
  S    -1.047504  7.973496  3.690171
  S     1.347174  3.654549  0.181029
  S     1.871563  8.265817  0.833052
  S     0.717746  4.173665  4.142496
  S     1.413864  8.295949  4.961135
