16  
    
  C     1.302748  4.643910  3.256966
  C     1.451549  7.988652  3.140620
  C     0.059943  4.147001  2.776081
  C     0.215734  7.879492  2.426687
  N     2.199071  4.863582  2.317213
  N     2.489718  7.930243  2.361924
  N    -0.090305  3.964139  1.441149
  N     0.382299  7.567875  1.144972
  N    -0.163700  4.303667  5.398573
  N    -0.342315  8.058186  4.939447
  S    -1.100353  4.073211  4.094618
  S    -1.128266  8.077373  3.466868
  S     1.432034  4.300933  0.906061
  S     1.984282  7.666077  0.783527
  S     1.444947  4.652457  5.026260
  S     1.321077  8.110241  4.807221
