16  
    
  C    -1.461508  3.296731  1.982096
  C    -1.025225  6.981241  2.452704
  C    -2.592632  2.602690  1.394949
  C    -2.279650  6.773490  1.837171
  N    -0.539916  3.817828  1.134460
  N     0.039525  7.021926  1.620330
  N    -2.335124  2.281549  0.131295
  N    -2.249796  6.831116  0.475905
  N    -3.135088  2.749034  3.873991
  N    -2.668479  6.670241  4.480181
  S    -3.832728  2.163564  2.501353
  S    -3.562805  6.631555  3.078299
  S    -0.920383  3.060532 -0.311946
  S    -0.649932  6.787372  0.104879
  S    -1.660040  3.460330  3.736093
  S    -1.075030  7.085596  4.180928
