16  
    
  C     0.170135  3.452383  2.343217
  C     0.274733  7.556881  2.847541
  C    -1.172157  3.391548  1.739070
  C    -0.802583  6.787876  2.302173
  N     1.151217  3.572677  1.407936
  N     1.261140  7.763536  1.993685
  N    -1.099483  3.175313  0.416383
  N    -0.664855  6.411453  1.030584
  N    -1.605938  3.369379  4.215633
  N    -1.508678  7.177788  4.637253
  S    -2.408362  3.012037  2.838028
  S    -2.177128  6.602760  3.253158
  S     0.448432  3.545374 -0.068963
  S     0.832083  6.928888  0.682500
  S     0.072814  3.606047  4.069999
  S     0.007654  7.924383  4.552766
