16  
    
  C    -3.703090  1.888616  1.857565
  C    -3.976938  5.352463  1.778083
  C    -4.839552  1.351700  1.207118
  C    -5.096471  4.867695  1.048555
  N    -2.728943  2.117585  1.009409
  N    -2.932635  5.599257  1.023145
  N    -4.902064  1.374465 -0.112687
  N    -4.921746  4.800496 -0.273311
  N    -5.342117  1.452784  3.685423
  N    -5.806694  5.003360  3.518311
  S    -6.188434  1.144223  2.291455
  S    -6.399411  4.399501  2.045968
  S    -3.333466  1.867727 -0.507370
  S    -3.390287  5.395804 -0.506342
  S    -3.738598  1.912111  3.554975
  S    -4.228807  5.441224  3.491845
