16  
    
  C    -0.292149  3.244989  2.726352
  C    -0.285625  7.157030  2.434787
  C    -1.476071  2.683988  2.043579
  C    -1.430405  6.732517  1.700819
  N     0.695708  3.511697  1.853370
  N     0.896776  7.128613  1.796879
  N    -1.272291  2.287264  0.771216
  N    -1.203208  6.403265  0.433600
  N    -2.207228  3.138842  4.457385
  N    -2.215584  6.850514  4.211381
  S    -2.751284  2.315661  3.107948
  S    -2.870554  6.547360  2.699145
  S     0.268324  2.753379  0.398550
  S     0.410601  6.725404  0.174474
  S    -0.690689  3.787546  4.372608
  S    -0.603265  7.326033  4.164664
