16  
    
  C    -5.411836  1.147165  1.661451
  C    -5.169625  4.752414  1.430610
  C    -6.654360  0.971649  1.019752
  C    -6.439148  4.445526  0.797164
  N    -4.381486  1.107958  0.823975
  N    -4.168845  4.735942  0.571520
  N    -6.552227  0.776690 -0.276955
  N    -6.323695  4.075111 -0.454578
  N    -7.224460  1.020901  3.599921
  N    -6.948621  5.165883  3.167033
  S    -7.996604  0.716780  2.112828
  S    -7.744075  4.463333  1.847382
  S    -4.971980  0.732931 -0.653730
  S    -4.721670  4.272309 -0.917005
  S    -5.579639  1.264666  3.366680
  S    -5.281326  5.106626  3.125892
