16  
    
  C     2.964002  5.149774  3.574348
  C     3.035734  8.830123  3.462686
  C     1.739445  4.920005  2.855556
  C     1.882605  8.253238  2.777479
  N     3.973188  5.548438  2.798184
  N     4.017567  9.157158  2.591976
  N     1.889862  4.827131  1.524632
  N     2.025424  7.983149  1.469255
  N     1.092776  4.876805  5.371449
  N     1.032244  8.446892  5.137627
  S     0.342712  4.604544  3.898087
  S     0.408389  7.992127  3.643493
  S     3.502676  5.266054  1.247357
  S     3.475010  8.659900  1.085519
  S     2.674971  5.351354  5.267649
  S     2.619727  8.836928  5.227754
