16  
    
  C     2.256651  4.459982  3.056950
  C     1.946286  8.406216  3.048975
  C     1.114367  3.839671  2.359424
  C     0.794059  7.668429  2.534957
  N     3.338691  4.489418  2.293068
  N     3.056310  8.395869  2.311172
  N     1.239040  3.728927  1.042410
  N     1.018202  7.115582  1.333832
  N     0.293948  4.355201  4.728274
  N     0.135744  8.662497  4.891797
  S    -0.366572  3.878152  3.263362
  S    -0.527566  7.633262  3.748953
  S     2.906018  3.953853  0.746037
  S     2.610621  7.649733  0.938494
  S     1.866208  4.568999  4.726655
  S     1.761112  9.081137  4.628063
