16  
    
  C     0.914456  4.162193  2.538861
  C     1.577880  8.501391  3.074393
  C    -0.185469  3.481124  1.944854
  C     0.281751  8.247622  2.436362
  N     1.982155  4.293053  1.788941
  N     2.644638  8.674019  2.260700
  N     0.025797  3.385563  0.650248
  N     0.343014  8.184070  1.106039
  N    -0.910046  3.722535  4.330302
  N    -0.168137  8.155149  5.058763
  S    -1.547929  3.154713  2.962102
  S    -1.008002  7.999919  3.642077
  S     1.519048  3.918297  0.294517
  S     1.949918  8.443517  0.752335
  S     0.601857  4.357147  4.225362
  S     1.385342  8.728942  4.842922
