16  
    
  C    -5.552629  0.861286  1.439734
  C    -5.335531  5.018844  1.223800
  C    -6.769662  0.457254  0.793641
  C    -6.549375  4.398103  0.721714
  N    -4.532164  1.126257  0.615553
  N    -4.396857  5.273880  0.307279
  N    -6.634369  0.238789 -0.534640
  N    -6.429011  4.143190 -0.598380
  N    -7.354996  0.882520  3.290729
  N    -6.759170  4.379454  3.283599
  S    -8.065760  0.159211  1.901820
  S    -7.656919  3.880486  1.978484
  S    -5.024657  0.628815 -0.936368
  S    -4.927451  4.662953 -1.150709
  S    -5.647472  1.027561  3.224488
  S    -5.297190  5.016363  2.925008
