16  
    
  C     2.040149  4.947639  3.154374
  C     2.097877  8.676766  3.394965
  C     0.864548  4.612798  2.446873
  C     0.881614  8.342397  2.734889
  N     3.070945  5.266055  2.386701
  N     3.061628  8.854734  2.514778
  N     1.104765  4.429615  1.145357
  N     0.898195  8.333770  1.419728
  N     0.268536  4.394860  5.030914
  N     0.179356  8.579637  5.157309
  S    -0.487653  4.173069  3.508221
  S    -0.506937  8.051231  3.747166
  S     2.638129  4.940696  0.825638
  S     2.436228  8.654801  0.990188
  S     1.867810  4.859962  4.816638
  S     1.815155  8.902334  5.125709
