16  
    
  C    -0.400640  3.301072  2.549301
  C    -0.180228  7.037269  2.345943
  C    -1.592503  2.708166  1.979987
  C    -1.488059  6.705470  1.698194
  N     0.613117  3.368616  1.681866
  N     0.792039  7.142389  1.416486
  N    -1.557744  2.635399  0.644640
  N    -1.358530  6.444188  0.416269
  N    -2.067750  3.213890  4.452458
  N    -2.048756  6.736841  4.259198
  S    -2.888920  2.746523  3.134065
  S    -2.814657  6.570680  2.810001
  S     0.042508  2.978904  0.199882
  S     0.179499  6.873922 -0.093546
  S    -0.456042  3.559678  4.276509
  S    -0.458456  7.168073  4.094861
