16  
    
  C    -5.553361  0.861481  1.436714
  C    -5.341504  5.017087  1.215870
  C    -6.775618  0.452899  0.789253
  C    -6.548207  4.393234  0.715842
  N    -4.521378  1.124573  0.620482
  N    -4.393836  5.269626  0.312645
  N    -6.641463  0.239482 -0.532970
  N    -6.440809  4.144010 -0.603493
  N    -7.358456  0.885317  3.286129
  N    -6.764850  4.377178  3.280561
  S    -8.068099  0.160733  1.905178
  S    -7.666818  3.881735  1.977940
  S    -5.025055  0.625677 -0.932209
  S    -4.936415  4.660375 -1.144263
  S    -5.647638  1.025949  3.226960
  S    -5.301705  5.014624  2.920624
