16  
    
  C     3.213134  4.958343  3.490876
  C     3.304377  9.233658  3.754331
  C     1.974323  4.643660  2.769018
  C     2.165644  8.864519  2.972905
  N     4.227535  5.158667  2.670941
  N     4.486912  9.238012  3.120839
  N     2.090684  4.533175  1.449388
  N     2.466367  8.612352  1.640856
  N     1.392902  5.140245  5.207577
  N     1.404718  8.906030  5.503118
  S     0.573390  4.594257  3.794251
  S     0.664841  8.787578  3.984838
  S     3.739949  4.795727  1.131262
  S     4.136230  9.013837  1.505404
  S     3.052332  5.239323  5.166334
  S     3.120627  9.254984  5.396466
