16  
    
  C    -1.580851  2.721355  2.387997
  C    -1.562854  6.214415  2.377954
  C    -2.723241  2.183760  1.682340
  C    -2.804747  5.776156  1.722548
  N    -0.467652  2.775570  1.628228
  N    -0.527835  6.440067  1.554150
  N    -2.502121  1.971274  0.376963
  N    -2.750929  5.706065  0.353786
  N    -3.523948  2.495225  4.103072
  N    -3.366873  6.178908  4.194412
  S    -4.142573  1.962266  2.641361
  S    -4.117711  5.517852  2.860262
  S    -0.914366  2.199536  0.136125
  S    -1.134814  6.085201  0.041462
  S    -1.913115  2.930003  4.056631
  S    -1.772193  6.538325  4.075613
