16  
    
  C     3.115173  5.056846  3.452785
  C     3.148378  8.706840  3.714011
  C     1.813736  4.791643  2.820629
  C     1.822646  8.507460  3.255076
  N     4.120088  5.134222  2.600605
  N     4.124344  8.608909  2.837346
  N     1.953253  4.388759  1.549754
  N     1.850339  8.247388  1.909535
  N     1.388739  5.016684  5.378333
  N     1.789057  9.387062  5.817339
  S     0.536509  4.573016  4.019937
  S     0.677953  9.047601  4.550727
  S     3.531037  4.704674  1.060521
  S     3.418885  8.218546  1.441491
  S     3.061959  5.291173  5.186563
  S     3.419822  9.359030  5.304848
