16  
    
  C    -1.191399  3.336544  2.139611
  C    -1.089100  7.061664  2.598024
  C    -2.447461  2.797400  1.601226
  C    -2.353142  6.833986  1.992638
  N    -0.349523  3.759917  1.209292
  N    -0.068579  7.184686  1.760204
  N    -2.433448  2.531156  0.311225
  N    -2.293546  6.824267  0.697645
  N    -2.704449  2.920947  4.196063
  N    -2.832959  6.633064  4.497729
  S    -3.623345  2.462489  2.861072
  S    -3.681645  6.608130  3.053208
  S    -0.939741  3.117873 -0.244616
  S    -0.720408  6.849565  0.288500
  S    -1.116445  3.388725  3.884077
  S    -1.171504  7.069210  4.348501
