16  
    
  C     1.686547  4.619484  3.360943
  C     1.351306  8.168314  3.057934
  C     0.493064  4.050693  2.779628
  C     0.312634  7.408675  2.395052
  N     2.734207  4.524698  2.516124
  N     2.298704  8.525393  2.203000
  N     0.523894  3.832082  1.420468
  N     0.553125  7.144634  1.115127
  N     0.017903  4.582293  5.383066
  N    -0.381997  7.567129  4.889393
  S    -0.832872  4.302424  3.944110
  S    -0.999998  7.053334  3.454491
  S     2.091039  3.999450  1.115526
  S     1.899206  7.944666  0.656691
  S     1.659756  4.855927  5.088464
  S     1.192063  8.202462  4.779956
