16  
    
  C    -4.219856  1.648657  1.874925
  C    -4.291301  5.174475  1.718240
  C    -5.463161  1.153071  1.282800
  C    -5.542671  4.726098  1.145396
  N    -3.130961  1.691304  1.072149
  N    -3.252543  5.291321  0.876239
  N    -5.204624  0.657596  0.047815
  N    -5.485111  4.452484 -0.160456
  N    -6.038208  1.485407  3.762433
  N    -5.923120  5.057238  3.694295
  S    -6.776481  0.999666  2.395533
  S    -6.780721  4.665123  2.399573
  S    -3.645644  0.963300 -0.306036
  S    -3.878276  4.749031 -0.589153
  S    -4.556728  2.172617  3.497937
  S    -4.426128  5.628894  3.415526
