16  
    
  C     0.053954  3.635712  2.628524
  C     0.333200  7.528312  2.670478
  C    -1.001861  2.917968  2.075911
  C    -0.921138  7.298614  1.982264
  N     1.081300  3.821963  1.805590
  N     1.353664  7.637597  1.812474
  N    -0.966415  2.799378  0.743966
  N    -0.809664  7.012190  0.688483
  N    -1.767422  3.377825  4.446888
  N    -1.475658  7.177128  4.558895
  S    -2.368165  2.538609  3.083861
  S    -2.301810  7.074779  3.082722
  S     0.603820  3.197639  0.322259
  S     0.779947  7.362699  0.285395
  S    -0.289571  4.020993  4.278728
  S     0.156975  7.456554  4.430009
