16  
    
  C     2.866525  5.029687  3.624592
  C     3.006489  8.625410  3.576765
  C     1.615071  4.984621  2.938666
  C     1.793497  8.314580  2.815199
  N     3.945985  4.930132  2.855292
  N     4.049153  8.663083  2.781625
  N     1.717516  4.789298  1.615652
  N     1.888103  8.234958  1.533347
  N     1.171333  5.349689  5.561032
  N     1.068816  8.720239  5.207543
  S     0.328478  5.138885  4.124821
  S     0.404511  8.392695  3.771348
  S     3.353793  4.925935  1.271586
  S     3.506245  8.315547  1.171354
  S     2.837938  5.245248  5.320748
  S     2.649170  9.054107  5.234016
