16  
    
  C    -0.408025  3.286965  2.677874
  C    -0.329286  7.031956  2.485386
  C    -1.469779  2.549541  2.080591
  C    -1.484425  6.352829  1.965506
  N     0.715312  3.461937  1.959314
  N     0.678872  7.170229  1.620217
  N    -1.353689  2.499820  0.747729
  N    -1.355889  5.939996  0.715404
  N    -2.206476  3.018727  4.557543
  N    -2.063295  6.956300  4.337670
  S    -2.847407  2.347935  3.126369
  S    -2.707163  6.045539  3.088930
  S     0.237717  2.897914  0.433659
  S     0.113850  6.386626  0.241228
  S    -0.670830  3.667849  4.381773
  S    -0.502637  7.529628  4.158924
