16  
    
  C     2.447913  4.779476  3.450766
  C     2.590656  8.748165  3.459878
  C     1.345187  4.133730  2.747031
  C     1.325940  8.241747  2.961153
  N     3.536147  4.997676  2.685968
  N     3.499119  8.912867  2.449231
  N     1.531843  4.225976  1.435911
  N     1.288451  8.003285  1.644523
  N     0.591415  4.368234  5.215298
  N     0.950367  8.440348  5.428717
  S    -0.144352  3.934158  3.730548
  S     0.066439  8.097938  4.120256
  S     3.050785  4.801524  1.108385
  S     2.759891  8.399088  1.070674
  S     2.141471  4.889610  5.194911
  S     2.562272  8.852702  5.291488
