16  
    
  C    -2.381489  2.023308  2.064414
  C    -2.612403  5.626215  2.112503
  C    -3.662701  1.900350  1.486322
  C    -3.851061  5.257263  1.423291
  N    -1.359246  2.033161  1.240471
  N    -1.572248  5.904909  1.284415
  N    -3.622015  1.770311  0.179631
  N    -3.744594  5.227312  0.089920
  N    -4.098703  2.222291  3.959907
  N    -4.379220  5.461932  3.938627
  S    -4.995012  2.009497  2.597997
  S    -5.172114  4.940714  2.609765
  S    -2.040297  1.869634 -0.270830
  S    -2.179826  5.505689 -0.282913
  S    -2.439855  2.346156  3.806988
  S    -2.725618  5.724264  3.806106
