16  
    
  C    -4.653068  1.124960  1.480246
  C    -4.802264  4.670729  1.683310
  C    -5.890755  0.942215  0.812994
  C    -6.073952  4.489997  1.018405
  N    -3.590709  1.175360  0.682077
  N    -3.780820  4.847802  0.846674
  N    -5.738431  0.807433 -0.516661
  N    -5.969162  4.407682 -0.295277
  N    -6.423040  0.736650  3.356852
  N    -6.595175  4.131248  3.521070
  S    -7.224614  0.656016  1.844567
  S    -7.392109  4.168926  2.026285
  S    -4.168950  0.908494 -0.850517
  S    -4.354026  4.552197 -0.704461
  S    -4.776046  0.911372  3.233407
  S    -5.021021  4.607797  3.418709
