16  
    
  C    -5.360888  1.299411  1.420548
  C    -5.353806  4.586666  1.591260
  C    -6.579178  0.902423  0.861762
  C    -6.652718  4.160577  1.074384
  N    -4.340608  1.200145  0.595861
  N    -4.464500  4.679123  0.656883
  N    -6.490288  0.701088 -0.445369
  N    -6.644616  3.942192 -0.216475
  N    -7.102616  1.092460  3.366488
  N    -6.855045  4.845972  3.496246
  S    -7.920121  0.782021  1.967535
  S    -7.810520  4.058550  2.318597
  S    -4.929592  0.739143 -0.837652
  S    -5.105175  4.328389 -0.790932
  S    -5.479105  1.319077  3.136162
  S    -5.204240  4.737835  3.290729
