16  
    
  C     1.018981  4.483268  2.883200
  C     1.656089  8.637473  2.929759
  C    -0.018934  3.812108  2.151600
  C     0.462995  8.042466  2.317478
  N     2.126108  4.644895  2.116299
  N     2.685684  8.876619  2.101657
  N     0.250245  3.717885  0.848455
  N     0.573994  7.832560  0.986520
  N    -0.865132  3.815536  4.576087
  N    -0.084188  8.442829  4.891922
  S    -1.490901  3.461017  3.066681
  S    -0.919974  8.073443  3.481075
  S     1.758340  4.267969  0.579998
  S     2.114409  8.319905  0.623569
  S     0.776948  4.337579  4.593917
  S     1.513362  8.916706  4.647612
