16  
    
  C    -3.146057  1.703963  2.027755
  C    -3.205606  5.563474  2.120332
  C    -4.370157  1.417086  1.377162
  C    -4.296638  4.885208  1.481732
  N    -2.174105  2.054520  1.180787
  N    -2.197834  5.845646  1.271157
  N    -4.297405  1.325058  0.041673
  N    -4.173513  4.723042  0.170604
  N    -5.060628  1.582506  3.807948
  N    -4.806937  5.035982  3.973535
  S    -5.750872  1.248916  2.365807
  S    -5.565034  4.568694  2.565559
  S    -2.757531  1.757985 -0.322293
  S    -2.641701  5.375054 -0.221719
  S    -3.458827  1.913135  3.712547
  S    -3.337512  5.888413  3.843819
