16  
    
  C    -5.374562  1.060132  1.706879
  C    -5.115274  4.698784  1.399279
  C    -6.650554  0.785342  1.056013
  C    -6.378959  4.268604  0.793835
  N    -4.289007  1.048248  0.935339
  N    -4.077666  4.749591  0.553408
  N    -6.536543  0.592931 -0.260176
  N    -6.270410  4.086592 -0.518402
  N    -7.124807  0.998110  3.505151
  N    -7.002189  5.125872  3.109110
  S    -7.999112  0.647300  2.148513
  S    -7.783907  4.497985  1.749597
  S    -4.932221  0.799734 -0.599191
  S    -4.717384  4.412786 -0.941794
  S    -5.530899  1.327546  3.453202
  S    -5.350116  5.197330  3.058166
