16  
    
  C     0.988794  4.028504  2.736724
  C     1.111421  7.628628  3.099966
  C    -0.328411  3.492510  2.325445
  C    -0.144458  7.106299  2.478546
  N     1.985172  3.923233  1.919295
  N     2.146514  7.647944  2.264932
  N    -0.301167  2.990611  1.121385
  N    -0.017867  6.869687  1.170911
  N    -0.654340  4.178717  4.778704
  N    -0.607831  7.406446  5.031830
  S    -1.550556  3.356701  3.567314
  S    -1.504169  7.078337  3.620568
  S     1.230891  3.272938  0.489341
  S     1.556398  7.100106  0.759317
  S     0.915368  4.453422  4.428845
  S     0.962520  8.010095  4.766675
