16  
    
  C    -3.725581  1.995157  1.816805
  C    -3.628033  5.553527  1.844959
  C    -4.667381  0.996471  1.280966
  C    -4.877927  5.149529  1.166596
  N    -2.674398  2.341596  1.025197
  N    -2.624081  5.638942  0.962175
  N    -4.416742  0.729970 -0.014190
  N    -4.800150  5.029896 -0.159822
  N    -5.429797  1.411865  3.722850
  N    -5.314478  5.443855  3.723302
  S    -5.962191  0.571051  2.419807
  S    -6.151718  4.957096  2.362328
  S    -2.972510  1.490636 -0.454140
  S    -3.194419  5.446106 -0.526782
  S    -4.024290  2.279377  3.561295
  S    -3.663499  5.755100  3.583928
