16  
    
  C    -1.838060  2.363442  2.540965
  C    -1.802372  6.148564  2.305772
  C    -3.019795  1.974693  1.772018
  C    -3.038840  5.608310  1.746057
  N    -0.802776  2.540487  1.699351
  N    -0.792666  6.336481  1.396519
  N    -2.849208  1.724569  0.459556
  N    -3.040634  5.528616  0.397602
  N    -3.684928  2.117509  4.299661
  N    -3.400913  5.673172  4.276257
  S    -4.348682  1.640546  2.844184
  S    -4.272733  5.398873  2.925769
  S    -1.317489  2.248256  0.161606
  S    -1.486767  5.935261 -0.050730
  S    -2.106528  2.594943  4.204018
  S    -1.892282  6.291111  4.008496
