16  
    
  C    -3.180264  1.763566  1.993759
  C    -3.149252  5.671321  2.104269
  C    -4.381440  1.382703  1.314658
  C    -4.292086  5.102552  1.482911
  N    -2.087672  1.933769  1.254640
  N    -2.126066  5.915224  1.269118
  N    -4.234575  1.352668 -0.009732
  N    -4.140802  4.787672  0.180937
  N    -5.084015  1.610218  3.736641
  N    -4.811973  5.042922  4.072602
  S    -5.793447  1.247666  2.232570
  S    -5.573915  4.642226  2.627185
  S    -2.654627  1.702593 -0.316585
  S    -2.730058  5.435066 -0.281003
  S    -3.425541  1.970954  3.702494
  S    -3.388719  5.829877  3.816464
