16  
    
  C     2.947476  5.206135  3.192036
  C     2.766387  9.172618  3.470501
  C     1.798975  4.518223  2.695234
  C     1.739608  8.393682  2.807317
  N     3.813756  5.546207  2.254973
  N     3.857589  9.563059  2.731403
  N     1.782154  4.277443  1.396530
  N     2.065112  8.209157  1.503372
  N     1.321368  4.723161  5.284896
  N     1.159890  8.602978  5.338337
  S     0.530505  4.161970  3.876177
  S     0.438520  7.932772  3.966808
  S     3.280688  4.837989  0.825848
  S     3.471517  9.077400  1.214762
  S     2.740367  5.484769  4.943587
  S     2.686840  9.173145  5.161801
