16  
    
  C    -3.352810  1.515701  2.040311
  C    -3.140701  5.419541  2.067521
  C    -4.667920  1.333968  1.493344
  C    -4.313089  4.944446  1.354720
  N    -2.341694  1.744862  1.206372
  N    -2.122395  5.556944  1.244447
  N    -4.641546  1.150307  0.176616
  N    -4.205249  4.763593  0.059116
  N    -5.026336  1.629364  4.003523
  N    -4.896888  5.082908  3.944141
  S    -5.889736  1.118801  2.661362
  S    -5.698188  4.864193  2.455449
  S    -3.110888  1.445514 -0.279953
  S    -2.558685  5.160187 -0.276715
  S    -3.355625  1.751146  3.768380
  S    -3.339210  5.771041  3.835200
