16  
    
  C     2.731297  5.171964  3.680861
  C     2.214052  8.681467  3.411502
  C     1.493091  4.578715  3.175407
  C     1.228753  7.884970  2.728932
  N     3.754090  5.135114  2.840561
  N     3.287572  9.070944  2.694978
  N     1.530473  4.238083  1.904111
  N     1.559518  7.640970  1.452659
  N     1.130952  4.954889  5.630985
  N     0.418456  8.245742  5.149612
  S     0.292830  4.251503  4.361435
  S    -0.152672  7.541334  3.764042
  S     3.065693  4.575517  1.398806
  S     3.056797  8.322876  1.180801
  S     2.612038  5.619591  5.402007
  S     1.858713  9.044347  5.118688
