16  
    
  C    -5.031971  1.183853  1.749774
  C    -4.935361  4.788997  1.562371
  C    -6.194409  0.546404  1.132640
  C    -6.061595  4.216903  0.849964
  N    -3.953124  1.351713  1.011582
  N    -3.862895  5.055633  0.813319
  N    -6.015278  0.255047 -0.140179
  N    -5.836015  3.956638 -0.447670
  N    -6.877454  0.945442  3.651323
  N    -6.801738  4.627117  3.341811
  S    -7.546570  0.166018  2.235195
  S    -7.471104  3.933204  1.955565
  S    -4.408645  0.711862 -0.501955
  S    -4.327741  4.608370 -0.722678
  S    -5.280484  1.470677  3.446413
  S    -5.262970  5.262112  3.232309
