16  
    
  C    -5.335137  1.118582  1.480105
  C    -5.207200  4.507327  1.526550
  C    -6.642735  0.958241  0.860287
  C    -6.541871  4.151030  1.015050
  N    -4.273629  1.171731  0.686195
  N    -4.271939  4.649311  0.602511
  N    -6.602382  0.623986 -0.420106
  N    -6.574682  3.939353 -0.300907
  N    -7.134427  1.102572  3.395157
  N    -6.880127  4.743187  3.581402
  S    -7.989121  0.890475  1.986165
  S    -7.748595  4.153267  2.307889
  S    -4.977148  0.821456 -0.846096
  S    -5.040133  4.261467 -0.828834
  S    -5.453770  1.352971  3.248808
  S    -5.235519  4.882670  3.241393
