16  
    
  C     2.630770  5.227958  3.635678
  C     2.274570  8.784293  3.448553
  C     1.456606  4.518143  3.168769
  C     1.285894  7.906334  2.810536
  N     3.684057  5.096191  2.816612
  N     3.243243  9.129964  2.630702
  N     1.510508  4.242152  1.867254
  N     1.533261  7.618612  1.557920
  N     1.019126  4.955867  5.660920
  N     0.436912  8.162995  5.138356
  S     0.246575  4.187041  4.375260
  S    -0.135193  7.563880  3.740241
  S     3.072886  4.573969  1.334652
  S     3.035769  8.283309  1.163757
  S     2.617639  5.557338  5.338926
  S     1.851484  9.061263  5.136297
