16  
    
  C     3.412618  5.330980  3.525712
  C     3.667131  9.320153  3.460467
  C     2.159262  4.932496  2.900673
  C     2.483119  8.648789  2.904525
  N     4.370409  5.605391  2.666622
  N     4.635781  9.476013  2.615566
  N     2.216116  4.820211  1.566017
  N     2.527115  8.389070  1.632888
  N     1.605692  4.900129  5.478841
  N     1.901229  8.716140  5.321027
  S     0.896946  4.553207  4.044874
  S     1.231590  8.126110  3.916418
  S     3.775369  5.138190  1.110043
  S     3.971732  8.988571  1.097767
  S     3.226807  5.352915  5.320555
  S     3.408897  9.417747  5.208083
