16  
    
  C    -1.864076  2.380876  2.520499
  C    -1.717250  5.795863  2.399435
  C    -3.174443  2.233258  1.832825
  C    -2.906767  5.550278  1.586779
  N    -0.825517  2.577757  1.703237
  N    -0.621203  5.930665  1.639210
  N    -3.029128  2.099661  0.527982
  N    -2.735715  5.714907  0.284462
  N    -3.665083  2.191617  4.365910
  N    -3.623928  5.573030  4.088072
  S    -4.483311  1.969622  2.915978
  S    -4.287689  5.334748  2.592353
  S    -1.402349  2.460374  0.172545
  S    -1.077592  5.880065  0.006409
  S    -2.026183  2.487395  4.267411
  S    -2.015787  5.920941  4.101632
