16  
    
  C     3.055709  5.086727  3.376400
  C     3.349608  8.931135  3.595906
  C     1.992568  4.400280  2.711335
  C     2.056789  8.640256  3.005332
  N     4.093886  5.476299  2.658054
  N     4.372727  9.027674  2.711100
  N     2.194072  4.335976  1.402367
  N     2.112140  8.479620  1.658976
  N     1.164181  5.086550  5.101739
  N     1.574422  8.866153  5.429831
  S     0.608247  4.136619  3.844864
  S     0.710810  8.583188  4.070029
  S     3.717977  5.002053  1.047418
  S     3.634994  8.809534  1.191447
  S     2.778109  5.366888  5.116260
  S     3.152279  9.300073  5.304985
