16  
    
  C    -3.450095  1.783182  1.599858
  C    -3.881836  5.271714  1.613960
  C    -4.706823  1.276697  0.964670
  C    -5.134357  4.816213  1.064996
  N    -2.471687  2.108298  0.758490
  N    -2.934643  5.413595  0.685289
  N    -4.578131  1.056567 -0.353420
  N    -5.117564  4.588928 -0.253613
  N    -5.186482  1.589426  3.559921
  N    -5.558186  5.079691  3.578815
  S    -5.884819  0.963322  2.193496
  S    -6.347801  4.508395  2.234802
  S    -3.062077  1.670116 -0.814825
  S    -3.581682  4.958296 -0.714304
  S    -3.641064  2.154611  3.315862
  S    -4.021816  5.571894  3.310169
