16  
    
  C     1.866877  4.098251  3.179018
  C     1.949767  7.996080  3.068370
  C     0.587632  4.041335  2.584966
  C     0.721103  7.505544  2.442230
  N     2.856342  4.345111  2.315341
  N     2.925365  8.338850  2.239541
  N     0.586834  3.856376  1.255552
  N     0.736230  7.424529  1.109088
  N     0.192397  4.300790  5.028404
  N     0.218887  7.488916  4.945546
  S    -0.709292  4.038406  3.726063
  S    -0.584341  7.123258  3.532639
  S     2.248636  4.035234  0.798420
  S     2.306028  7.984809  0.732789
  S     1.810257  4.312030  4.849169
  S     1.798736  7.862789  4.847486
