16  
    
  C    -4.620008  1.150932  1.509749
  C    -4.811730  4.665859  1.667380
  C    -5.866852  0.914812  0.859657
  C    -6.075312  4.470379  1.010050
  N    -3.583615  1.186566  0.703617
  N    -3.800969  4.860190  0.841545
  N    -5.767324  0.836851 -0.470557
  N    -5.981175  4.420583 -0.305155
  N    -6.424828  0.733820  3.369555
  N    -6.594609  4.135037  3.487910
  S    -7.234401  0.643653  1.840547
  S    -7.391644  4.155922  1.991557
  S    -4.159595  0.910055 -0.836598
  S    -4.365158  4.564920 -0.712012
  S    -4.750470  0.909693  3.221629
  S    -5.002192  4.594087  3.429517
