16  
    
  C     2.141990  4.523331  2.955850
  C     2.150348  8.581772  3.054944
  C     0.879244  4.167621  2.294657
  C     0.990912  7.886821  2.480004
  N     3.154776  4.623980  2.116444
  N     3.201169  8.746951  2.256022
  N     0.921130  4.061085  0.985646
  N     1.201595  7.466332  1.208112
  N     0.373081  4.429157  4.785136
  N     0.424465  8.482745  4.929509
  S    -0.373639  3.787567  3.428614
  S    -0.385921  7.853510  3.644816
  S     2.563063  4.297479  0.549400
  S     2.813049  8.000487  0.845027
  S     1.968876  4.714638  4.762206
  S     1.993020  8.980841  4.720721
