16  
    
  C     2.885221  5.326295  3.598221
  C     2.924363  8.830115  3.456388
  C     1.733349  4.856500  2.873237
  C     1.772590  8.320489  2.735544
  N     4.001805  5.404502  2.860866
  N     4.007958  9.045483  2.747373
  N     1.910514  4.892193  1.537478
  N     2.020493  8.089319  1.462572
  N     1.141512  4.690972  5.387670
  N     1.006886  8.638057  5.201235
  S     0.306291  4.803348  3.959554
  S     0.387005  8.069254  3.715997
  S     3.534371  5.186653  1.260507
  S     3.641405  8.541062  1.179262
  S     2.674786  5.328295  5.348932
  S     2.666490  8.796392  5.166883
