16  
    
  C     0.636524  3.800008  2.969374
  C     0.671700  7.527121  2.848887
  C    -0.613118  3.272742  2.454374
  C    -0.501051  7.000526  2.161000
  N     1.559765  4.108014  2.041970
  N     1.732021  7.570168  2.033471
  N    -0.482421  2.895154  1.211922
  N    -0.288876  6.835106  0.862935
  N    -1.170511  4.003934  4.857134
  N    -1.157201  7.154033  4.607409
  S    -1.984221  3.298643  3.559519
  S    -1.868252  6.824002  3.150610
  S     1.062583  3.305524  0.710124
  S     1.311855  7.226298  0.459785
  S     0.459958  4.286757  4.622287
  S     0.369880  7.811132  4.523459
