16  
    
  C     3.012881  5.369091  3.839289
  C     2.640072  8.490216  3.118817
  C     1.718383  5.012484  3.326222
  C     1.316850  8.186089  2.588895
  N     4.002316  5.121689  2.965489
  N     3.615049  8.510363  2.239034
  N     1.718701  4.640978  2.030884
  N     1.315974  8.101883  1.277485
  N     1.243341  5.674887  5.813035
  N     1.016149  8.818457  4.999854
  S     0.372519  5.320679  4.416113
  S     0.090242  8.212402  3.833220
  S     3.298580  4.777909  1.523898
  S     2.938946  8.197149  0.801824
  S     2.899808  5.849844  5.576852
  S     2.644097  9.034694  4.808873
