16  
    
  C    -3.136642  1.702826  2.051493
  C    -3.158534  5.630815  2.096296
  C    -4.364982  1.412382  1.339152
  C    -4.327375  5.016429  1.474420
  N    -2.149472  1.985130  1.213838
  N    -2.162869  5.876170  1.296481
  N    -4.270359  1.337786  0.045599
  N    -4.128856  4.756402  0.190674
  N    -5.091292  1.592025  3.776414
  N    -4.797997  5.035493  4.054565
  S    -5.771831  1.253715  2.272448
  S    -5.561715  4.612213  2.590704
  S    -2.695706  1.728589 -0.310286
  S    -2.703047  5.409643 -0.267555
  S    -3.434852  1.947436  3.681332
  S    -3.373715  5.854851  3.830881
