16  
    
  C     3.136330  5.014789  3.405752
  C     2.976582  9.006053  3.831779
  C     1.934244  4.630595  2.707473
  C     1.727429  8.511533  3.278643
  N     4.189870  5.111819  2.595194
  N     3.970126  9.039448  2.976771
  N     2.035877  4.590790  1.394907
  N     1.726118  8.179875  2.016528
  N     1.181409  5.026055  5.082739
  N     1.430126  9.052479  5.883387
  S     0.475384  4.675289  3.610391
  S     0.442700  8.757794  4.533677
  S     3.618941  4.875574  1.074102
  S     3.349231  8.578355  1.518855
  S     2.833753  5.265021  5.076859
  S     3.082253  9.323920  5.467121
