16  
    
  C     2.900103  5.358746  3.524762
  C     2.894876  8.705494  3.441481
  C     1.794505  4.772287  2.835035
  C     1.825708  8.092857  2.682343
  N     3.963301  5.468722  2.745425
  N     3.849521  9.145704  2.660138
  N     1.882241  4.732037  1.508961
  N     1.963928  8.156684  1.334651
  N     1.039330  5.085164  5.224729
  N     1.076116  8.340085  5.190043
  S     0.433520  4.454485  3.820353
  S     0.446916  7.888149  3.740397
  S     3.357547  5.270143  1.180740
  S     3.465225  8.795798  1.072698
  S     2.731754  5.342177  5.259368
  S     2.657957  8.952801  5.099423
