16  
    
  C     2.222051  4.373743  3.091172
  C     1.972179  8.280587  3.108896
  C     1.053748  4.120726  2.291346
  C     0.809112  7.638303  2.575910
  N     3.346645  4.316446  2.385417
  N     3.018732  8.288245  2.306724
  N     1.323766  3.740115  1.043757
  N     1.009311  7.207958  1.332180
  N     0.214043  4.477825  4.710061
  N     0.070715  8.529541  4.884264
  S    -0.369219  3.808261  3.195935
  S    -0.502753  7.536234  3.679349
  S     2.945695  4.007453  0.811415
  S     2.553175  7.473762  0.949853
  S     1.903363  4.705165  4.761129
  S     1.673831  9.043339  4.672496
