16  
    
  C    -4.137522  1.350224  1.949885
  C    -4.069619  5.071759  2.000027
  C    -5.430352  1.211711  1.227457
  C    -5.352912  4.722197  1.407500
  N    -3.089041  1.455664  1.142643
  N    -3.047836  5.000619  1.157931
  N    -5.298105  1.034347 -0.077517
  N    -5.293670  4.432304  0.118956
  N    -6.034077  1.435165  3.731585
  N    -5.713520  5.315721  3.845595
  S    -6.788472  1.152318  2.293336
  S    -6.609584  4.913910  2.521811
  S    -3.709329  1.194247 -0.431483
  S    -3.685588  4.535436 -0.253181
  S    -4.357642  1.572371  3.607919
  S    -4.123883  5.628973  3.619232
