16  
    
  C     0.055921  3.501689  2.308310
  C     0.302537  7.572947  2.769638
  C    -1.179428  3.193521  1.729877
  C    -0.833582  6.911608  2.161419
  N     1.069490  3.677124  1.504113
  N     1.409196  7.719109  1.998144
  N    -1.155029  3.230048  0.416816
  N    -0.560837  6.449014  0.943315
  N    -1.686660  3.498198  4.299714
  N    -1.486305  7.243630  4.736767
  S    -2.489701  3.050818  2.927918
  S    -2.154678  6.597892  3.396147
  S     0.434374  3.405464 -0.005292
  S     0.931233  7.002340  0.517855
  S    -0.018619  3.831663  4.037081
  S     0.032158  7.949955  4.531505
