16  
    
  C     2.961287  5.191566  3.975492
  C     2.634015  8.667290  3.109700
  C     1.675884  4.988512  3.354291
  C     1.339877  8.313330  2.622299
  N     3.968589  5.356739  3.123617
  N     3.606411  8.609052  2.224437
  N     1.778047  4.688283  2.056400
  N     1.324545  7.883782  1.383277
  N     1.243631  5.810193  5.675456
  N     0.864948  8.512020  5.145747
  S     0.377895  5.102593  4.461833
  S     0.069227  8.168642  3.676306
  S     3.395715  4.843722  1.666889
  S     2.856193  8.127286  0.761568
  S     2.864991  5.916006  5.496932
  S     2.486737  8.868237  4.889057
