16  
    
  C     1.020363  4.063754  2.699040
  C     1.095360  7.586934  3.132218
  C    -0.207034  3.397444  2.281063
  C    -0.199080  7.217857  2.513657
  N     1.907320  4.071047  1.751927
  N     2.095780  7.605232  2.239031
  N    -0.195652  2.944799  1.042755
  N    -0.075605  6.923599  1.210812
  N    -0.712625  4.311793  4.632943
  N    -0.598174  7.413464  5.049056
  S    -1.456401  3.407130  3.468008
  S    -1.461119  7.123468  3.727373
  S     1.299529  3.236915  0.492339
  S     1.523551  7.199909  0.778278
  S     0.904550  4.642252  4.341072
  S     0.917771  7.984675  4.782533
