16  
    
  C     0.840580  4.187447  2.467463
  C     1.557980  8.281072  3.237581
  C    -0.282509  3.409888  1.886944
  C     0.259712  8.129270  2.551866
  N     1.852326  4.276767  1.632919
  N     2.591537  8.467152  2.396208
  N    -0.093892  3.143023  0.596017
  N     0.287720  8.116231  1.223479
  N    -0.852383  3.804720  4.352061
  N    -0.248003  8.210209  5.101258
  S    -1.607477  3.119393  3.009713
  S    -1.071905  7.974751  3.671324
  S     1.396100  3.660472  0.180242
  S     1.856881  8.310342  0.872500
  S     0.691595  4.207049  4.191658
  S     1.432277  8.388084  4.941727
