16  
    
  C    -5.636259  0.832246  1.577453
  C    -5.775688  4.643618  1.309962
  C    -6.830245  0.482291  0.847090
  C    -7.008749  4.255584  0.689261
  N    -4.595987  0.944645  0.802170
  N    -4.818732  4.925640  0.473645
  N    -6.702644  0.269379 -0.453318
  N    -6.927958  4.084629 -0.592037
  N    -7.503698  0.482254  3.364079
  N    -7.490459  4.484594  3.208783
  S    -8.217920  0.269477  1.896247
  S    -8.289580  4.011293  1.827213
  S    -5.078466  0.573052 -0.780661
  S    -5.367030  4.540840 -1.040598
  S    -5.946060  1.087663  3.246190
  S    -5.876748  4.841557  3.000878
