16  
    
  C    -4.244592  1.649697  1.873718
  C    -4.234552  5.227159  1.722969
  C    -5.380823  1.038962  1.281436
  C    -5.483461  4.755304  1.155453
  N    -3.179581  1.663268  1.098579
  N    -3.218023  5.282154  0.878839
  N    -5.220410  0.622892  0.039469
  N    -5.359391  4.363385 -0.113915
  N    -5.998092  1.565073  3.775739
  N    -5.892392  5.070784  3.803508
  S    -6.762706  0.984211  2.447679
  S    -6.721988  4.636528  2.441405
  S    -3.661668  0.971010 -0.410003
  S    -3.756810  4.709022 -0.589692
  S    -4.519587  2.183817  3.524387
  S    -4.379608  5.608883  3.387949
