16  
    
  C     2.121098  4.607047  2.975441
  C     2.168355  8.577646  3.056071
  C     0.893731  4.165226  2.315802
  C     1.002779  7.892811  2.459296
  N     3.115399  4.595487  2.121415
  N     3.201352  8.746182  2.252317
  N     0.909313  4.082571  0.980218
  N     1.212409  7.527854  1.174544
  N     0.368507  4.433147  4.762695
  N     0.433852  8.490466  4.941005
  S    -0.377582  3.791120  3.439877
  S    -0.378471  7.844760  3.648685
  S     2.557550  4.327094  0.538191
  S     2.826509  8.016447  0.858009
  S     1.967593  4.732637  4.763305
  S     2.005295  8.968096  4.720458
