16  
    
  C    -0.357967  3.414565  2.495135
  C    -0.310392  6.888565  2.259642
  C    -1.653522  2.952311  1.974565
  C    -1.556322  6.590331  1.720233
  N     0.602375  3.472471  1.586162
  N     0.646723  7.190160  1.389756
  N    -1.610989  2.675614  0.698421
  N    -1.558273  6.498724  0.413429
  N    -1.987788  3.157370  4.455732
  N    -1.857640  6.690183  4.274018
  S    -2.909505  2.977629  3.133139
  S    -2.795505  6.453190  2.922124
  S    -0.093481  3.112974  0.125799
  S     0.029673  6.840349 -0.054042
  S    -0.375422  3.381263  4.287885
  S    -0.274230  7.142336  3.968212
