16  
    
  C    -4.013002  1.590811  1.681804
  C    -4.009141  5.257561  1.911125
  C    -5.245452  1.242620  1.047005
  C    -5.198532  5.037667  1.201563
  N    -2.928099  1.501078  0.927362
  N    -2.967514  5.509187  1.136499
  N    -5.186663  1.117746 -0.265524
  N    -5.133897  5.189211 -0.138888
  N    -5.712266  1.588984  3.543656
  N    -5.909637  4.973791  3.710899
  S    -6.545599  1.357762  2.098786
  S    -6.654686  4.839266  2.193048
  S    -3.570548  1.190311 -0.629013
  S    -3.546342  5.645624 -0.382279
  S    -4.047804  1.663923  3.427402
  S    -4.213572  5.130416  3.655034
