16  
    
  C     0.157684  3.526549  2.306275
  C     0.204055  7.244763  2.910875
  C    -1.104950  3.077751  1.626899
  C    -0.999319  6.736896  2.223956
  N     1.181422  3.711140  1.517092
  N     1.250984  7.548124  2.115788
  N    -0.962925  2.994574  0.315022
  N    -0.837954  6.581058  0.912567
  N    -1.467190  2.905971  4.269000
  N    -1.695762  7.226313  4.652339
  S    -2.383048  2.867877  2.813711
  S    -2.341850  6.525567  3.271831
  S     0.571910  3.498348 -0.053473
  S     0.715957  6.996173  0.575792
  S     0.127006  3.401094  4.045930
  S    -0.127405  7.735051  4.547350
