16  
    
  C    -2.138632  2.455959  1.942757
  C    -2.122529  5.738716  2.192784
  C    -3.352006  1.985066  1.407866
  C    -3.404928  5.546603  1.538127
  N    -1.127114  2.574126  1.081615
  N    -1.070276  5.765478  1.419650
  N    -3.341304  1.768295  0.091021
  N    -3.313882  5.402417  0.213872
  N    -3.834581  2.352026  3.878200
  N    -3.921965  5.882005  4.043251
  S    -4.687021  1.945751  2.538465
  S    -4.687377  5.422477  2.658817
  S    -1.774475  2.055234 -0.383118
  S    -1.760799  5.774491 -0.118274
  S    -2.215915  2.570811  3.681425
  S    -2.275525  6.143611  3.899405
