16  
    
  C    -5.506879  0.906667  1.379858
  C    -5.043994  4.896856  1.364997
  C    -6.690588  0.454684  0.761531
  C    -6.150807  4.195995  0.838596
  N    -4.538897  1.236268  0.530896
  N    -4.263389  5.369936  0.394992
  N    -6.512926  0.281136 -0.571491
  N    -6.148319  4.075036 -0.484872
  N    -7.198749  0.466215  3.270977
  N    -6.616857  4.359372  3.253643
  S    -8.023554  0.143096  1.780316
  S    -7.420634  3.875485  1.893482
  S    -5.030005  0.838083 -0.986780
  S    -4.850710  4.913389 -1.091184
  S    -5.698587  1.204629  3.085071
  S    -5.271367  5.316061  3.003500
