16  
    
  C    -4.437143  1.156529  1.868731
  C    -4.651520  4.700135  1.638110
  C    -5.610008  0.671305  1.215251
  C    -5.836617  4.393353  0.872650
  N    -3.464625  1.500121  1.038119
  N    -3.620515  5.069134  0.893785
  N    -5.655292  0.744922 -0.101129
  N    -5.707823  4.465629 -0.444959
  N    -6.158480  0.649807  3.718612
  N    -6.621383  4.115876  3.249360
  S    -6.922426  0.394378  2.216842
  S    -7.182489  3.807168  1.702451
  S    -4.070208  1.330981 -0.487825
  S    -4.200379  5.019478 -0.647884
  S    -4.517292  1.117046  3.569669
  S    -4.957111  4.478628  3.335392
