16  
    
  C    -0.411388  3.434705  2.716335
  C    -0.316450  7.016471  2.501007
  C    -1.421035  2.541019  2.071399
  C    -1.480937  6.428289  1.856696
  N     0.695486  3.572265  1.965356
  N     0.757880  7.172676  1.746061
  N    -1.160350  2.218264  0.799561
  N    -1.226899  5.990707  0.613520
  N    -2.255105  3.070220  4.457003
  N    -2.166219  7.022662  4.350742
  S    -2.799380  2.306501  3.063941
  S    -2.845150  6.269816  3.028951
  S     0.324378  2.844573  0.466672
  S     0.292568  6.519133  0.231937
  S    -0.737631  3.713375  4.435218
  S    -0.586353  7.473269  4.147952
