16  
    
  C     0.850652  3.865350  2.514929
  C     1.562366  8.154858  3.240714
  C    -0.315468  3.427834  1.880577
  C     0.265661  8.013530  2.594976
  N     1.787427  4.162891  1.628024
  N     2.592596  8.301426  2.401910
  N    -0.201463  3.192940  0.559041
  N     0.297005  7.885601  1.248338
  N    -0.784898  3.704103  4.376868
  N    -0.213678  8.089782  5.171434
  S    -1.605821  3.163855  3.010328
  S    -1.095445  7.970206  3.777088
  S     1.324134  3.647076  0.174506
  S     1.902706  8.173591  0.889003
  S     0.749835  4.190326  4.223239
  S     1.443665  8.145965  5.065772
