16  
    
  C     3.121459  5.127337  3.363237
  C     3.036673  8.909508  3.856312
  C     1.908613  4.669214  2.680471
  C     1.751295  8.465898  3.345375
  N     4.210634  5.085146  2.585138
  N     3.969394  9.151343  2.921631
  N     2.029379  4.530574  1.375872
  N     1.761715  8.250973  1.993573
  N     1.155181  5.040444  5.039917
  N     1.364249  8.963189  5.820962
  S     0.455174  4.660062  3.586293
  S     0.471764  8.727798  4.461594
  S     3.632607  4.868998  1.012840
  S     3.322312  8.624676  1.485479
  S     2.808300  5.258848  5.128331
  S     2.991858  9.359811  5.607206
