16  
    
  C    -5.637553  0.848301  1.583482
  C    -5.853934  4.645026  1.296217
  C    -6.854573  0.512572  0.853601
  C    -7.053901  4.273269  0.684359
  N    -4.567215  0.978388  0.818355
  N    -4.827320  4.936789  0.509747
  N    -6.727109  0.248731 -0.463341
  N    -6.967021  4.082015 -0.633195
  N    -7.542141  0.497560  3.378277
  N    -7.529945  4.506264  3.199128
  S    -8.225281  0.245049  1.900393
  S    -8.332967  4.001877  1.825086
  S    -5.095829  0.578386 -0.756233
  S    -5.378183  4.519572 -0.997016
  S    -5.948869  1.075168  3.229781
  S    -5.885050  4.820598  3.036543
