16  
    
  C     3.202349  5.137943  3.387877
  C     3.351614  9.221242  3.712641
  C     1.987346  4.724422  2.730562
  C     2.152179  8.826969  3.038453
  N     4.247782  5.325619  2.542748
  N     4.474555  9.306405  2.959407
  N     2.152911  4.464320  1.429316
  N     2.309350  8.652051  1.704162
  N     1.339729  4.733258  5.264072
  N     1.317606  8.782272  5.458194
  S     0.662888  4.376992  3.791019
  S     0.731560  8.623754  3.852301
  S     3.762058  4.809933  1.067164
  S     3.936021  8.936243  1.360729
  S     2.888531  5.330663  5.158366
  S     2.947082  9.272857  5.478298
