16  
    
  C    -1.860929  2.378397  2.535797
  C    -1.699302  5.802454  2.388806
  C    -3.164085  2.221135  1.825080
  C    -2.909591  5.573525  1.580299
  N    -0.836999  2.576543  1.708084
  N    -0.611547  5.916616  1.641271
  N    -3.024262  2.076583  0.519347
  N    -2.741727  5.713266  0.278431
  N    -3.671106  2.181553  4.370736
  N    -3.623639  5.565336  4.104232
  S    -4.480867  1.970836  2.921922
  S    -4.286435  5.335817  2.601957
  S    -1.407753  2.465928  0.179758
  S    -1.077563  5.881397  0.003963
  S    -2.032331  2.482596  4.273586
  S    -2.023349  5.914053  4.088901
