16  
    
  C     0.271751  3.517032  2.811453
  C     0.281713  7.448753  2.704620
  C    -0.955969  3.056741  2.081917
  C    -1.002827  7.337092  2.053822
  N     1.185083  4.047923  1.985842
  N     1.327008  7.438908  1.883226
  N    -0.720933  2.874732  0.756198
  N    -0.942762  7.413653  0.725969
  N    -1.644588  2.992971  4.568264
  N    -1.408600  7.405380  4.601935
  S    -2.338095  2.672747  3.113851
  S    -2.304450  7.288255  3.253038
  S     0.777273  3.474493  0.483694
  S     0.683700  7.613686  0.342416
  S    -0.076725  3.709918  4.476230
  S     0.243962  7.571439  4.388790
