16  
    
  C     0.981096  4.078592  2.665921
  C     1.611104  8.555614  3.092301
  C    -0.206345  3.630633  1.925661
  C     0.333067  8.242677  2.482370
  N     2.032132  4.340701  1.858241
  N     2.590806  8.754034  2.208633
  N     0.029362  3.384528  0.642669
  N     0.350006  8.170624  1.140618
  N    -0.927445  3.760630  4.335320
  N    -0.130554  8.218700  4.981180
  S    -1.550673  3.139079  2.967654
  S    -0.987606  8.000077  3.583164
  S     1.566654  4.002214  0.303081
  S     1.980381  8.436569  0.724927
  S     0.604644  4.381987  4.261894
  S     1.392361  8.772556  4.818524
