16  
    
  C    -1.953309  2.247668  2.064005
  C    -2.031781  5.871332  2.177008
  C    -3.213759  1.948774  1.340520
  C    -3.304328  5.629968  1.526880
  N    -0.958633  2.367177  1.193664
  N    -0.975265  5.977887  1.320878
  N    -3.133429  1.795204  0.019270
  N    -3.228746  5.622285  0.179234
  N    -3.785588  2.389619  3.806584
  N    -3.732211  5.712886  4.098903
  S    -4.543568  1.791203  2.467743
  S    -4.600452  5.525748  2.725165
  S    -1.541295  2.135779 -0.353585
  S    -1.621297  5.666853 -0.215055
  S    -2.141364  2.472500  3.762712
  S    -2.120690  6.072305  3.881208
