16  
    
  C    -0.762908  2.927785  2.519564
  C    -1.135011  6.487251  2.484168
  C    -1.994255  2.658472  1.831188
  C    -2.254349  5.904135  1.826402
  N     0.281505  2.968975  1.707995
  N    -0.089420  6.729873  1.696593
  N    -1.869549  2.400690  0.528045
  N    -2.135409  5.862466  0.523556
  N    -2.479343  2.779306  4.385498
  N    -2.945252  6.053102  4.367670
  S    -3.297764  2.412735  3.001724
  S    -3.664668  5.612242  2.899698
  S    -0.268506  2.754292  0.175764
  S    -0.493107  6.243726  0.137814
  S    -0.897038  3.275838  4.171170
  S    -1.372438  6.572091  4.229574
