16  
    
  C    -0.264985  3.107399  2.606873
  C    -0.174896  7.012515  2.376320
  C    -1.507629  2.697690  2.070172
  C    -1.300941  6.295249  1.752382
  N     0.692744  3.294809  1.726162
  N     0.705344  7.374478  1.458574
  N    -1.438292  2.430616  0.774280
  N    -1.120021  6.085970  0.457235
  N    -1.848646  2.914497  4.588397
  N    -1.961882  6.620406  4.264865
  S    -2.776547  2.419780  3.296186
  S    -2.604990  5.941742  2.872309
  S     0.054603  3.001300  0.260505
  S     0.348828  6.731891  0.007848
  S    -0.330087  3.321545  4.279701
  S    -0.452426  7.226725  4.113617
