16  
    
  C     1.009885  4.493972  2.913303
  C     1.676698  8.604043  2.926468
  C    -0.045635  3.796118  2.168906
  C     0.455823  8.065434  2.312816
  N     2.102721  4.666179  2.133163
  N     2.700141  8.824431  2.081184
  N     0.238467  3.750743  0.865658
  N     0.548982  7.814696  0.998551
  N    -0.827049  3.826960  4.592238
  N    -0.070003  8.430731  4.882875
  S    -1.472108  3.501464  3.094461
  S    -0.912814  8.066083  3.458596
  S     1.784961  4.281724  0.585789
  S     2.115127  8.304884  0.637664
  S     0.790606  4.337928  4.631310
  S     1.524749  8.923195  4.652594
