16  
    
  C    -3.738469  1.926724  1.954152
  C    -3.520471  5.416973  1.968539
  C    -4.674618  1.070132  1.296653
  C    -4.807130  4.931372  1.406651
  N    -2.742731  2.427901  1.202183
  N    -2.515616  5.414323  1.080601
  N    -4.371027  0.761307  0.026845
  N    -4.679732  4.432674  0.162097
  N    -5.621520  1.401641  3.750091
  N    -5.167271  5.272888  3.936133
  S    -5.999553  0.569494  2.381960
  S    -6.073648  4.913222  2.606929
  S    -2.985286  1.656247 -0.336342
  S    -3.175186  4.825915 -0.338015
  S    -4.254492  2.291016  3.551056
  S    -3.525927  5.800572  3.664372
