16  
    
  C     0.844364  3.893079  2.501415
  C     1.526419  8.122689  3.245273
  C    -0.309545  3.349543  1.880258
  C     0.243289  8.004419  2.598067
  N     1.820307  4.131091  1.663850
  N     2.593125  8.276838  2.437245
  N    -0.231498  3.234555  0.531304
  N     0.326412  7.866164  1.269844
  N    -0.775904  3.675914  4.387754
  N    -0.211425  8.054574  5.184156
  S    -1.613454  3.174651  3.006706
  S    -1.090530  7.964666  3.774412
  S     1.319805  3.646903  0.157011
  S     1.897254  8.148009  0.892962
  S     0.754523  4.192864  4.251336
  S     1.468697  8.127738  5.060689
