16  
    
  C     1.903247  4.227098  3.336034
  C     1.835113  7.771461  3.062135
  C     0.626473  3.971780  2.672752
  C     0.569201  7.485621  2.467395
  N     2.928805  4.334024  2.500145
  N     2.762381  8.052640  2.168148
  N     0.662316  4.155676  1.344032
  N     0.566564  7.598808  1.156656
  N     0.127435  3.936390  5.238974
  N     0.120401  7.291293  4.986150
  S    -0.724921  3.889342  3.802519
  S    -0.727595  7.093874  3.536802
  S     2.284152  4.241403  0.971047
  S     2.038480  7.993989  0.654275
  S     1.823613  4.223925  4.997227
  S     1.719265  7.748803  4.793586
