16  
    
  C     0.592021  3.947068  2.949989
  C     0.686849  7.452814  2.789122
  C    -0.559905  3.324934  2.369140
  C    -0.539257  6.898634  2.168318
  N     1.643368  3.989070  2.166772
  N     1.691853  7.732586  1.954904
  N    -0.390272  2.813090  1.190832
  N    -0.397517  6.635662  0.842385
  N    -1.129369  3.995139  4.821996
  N    -1.032157  7.293098  4.689465
  S    -1.830248  3.245946  3.483780
  S    -1.836455  6.739625  3.285243
  S     1.135413  3.362484  0.672076
  S     1.162231  7.203469  0.498444
  S     0.426614  4.382848  4.672439
  S     0.543630  7.837185  4.432162
