16  
    
  C    -3.541678  1.836953  1.830507
  C    -3.613545  5.730749  1.767065
  C    -4.547472  0.911070  1.254649
  C    -4.830473  5.338425  1.130119
  N    -2.532180  2.166281  1.014736
  N    -2.550814  5.875398  0.941495
  N    -4.387116  0.637541 -0.060968
  N    -4.737634  5.282550 -0.182974
  N    -5.312175  1.522166  3.616034
  N    -5.398473  5.156252  3.575657
  S    -5.914885  0.727789  2.303405
  S    -6.178474  4.938976  2.156430
  S    -2.985744  1.427539 -0.468637
  S    -3.176234  5.631895 -0.567934
  S    -3.803461  2.139849  3.442735
  S    -3.769839  5.718541  3.525817
