16  
    
  C     0.351839  3.561211  2.908941
  C     0.367081  7.611679  2.845092
  C    -0.861623  3.217948  2.249885
  C    -0.942141  7.509304  2.316726
  N     1.417026  3.810154  2.159914
  N     1.287060  7.700504  1.907060
  N    -0.819233  3.529480  0.952238
  N    -1.018957  7.314287  1.023216
  N    -1.411468  3.117789  4.736261
  N    -1.191370  7.561781  4.864855
  S    -2.212859  2.881347  3.345444
  S    -2.145104  7.455375  3.525062
  S     0.832226  3.820095  0.599852
  S     0.618345  7.567748  0.423271
  S     0.245896  3.406103  4.624186
  S     0.470829  7.570880  4.538051
