16  
    
  C    -5.848566  0.850547  1.550651
  C    -6.057516  4.513508  1.668474
  C    -6.972405  0.169066  0.993899
  C    -7.265359  4.087790  0.921849
  N    -4.884478  1.167681  0.706689
  N    -5.038668  4.662567  0.866171
  N    -6.864576  0.105926 -0.319930
  N    -7.088412  4.095974 -0.375943
  N    -7.607713  0.525242  3.420154
  N    -7.864387  4.083822  3.361319
  S    -8.290175 -0.069867  2.071684
  S    -8.638211  3.996014  1.859243
  S    -5.433865  0.806308 -0.810311
  S    -5.495693  4.456344 -0.706328
  S    -6.057555  1.038461  3.264668
  S    -6.300668  4.729222  3.381151
