16  
    
  C    -3.411851  1.797597  1.557669
  C    -3.764962  5.451170  1.667832
  C    -4.510550  1.143308  0.988070
  C    -4.954998  4.973850  1.018269
  N    -2.366244  1.811816  0.728781
  N    -2.736931  5.743584  0.878972
  N    -4.431457  0.897737 -0.349052
  N    -4.872699  4.890127 -0.310013
  N    -5.075997  1.443956  3.528453
  N    -5.499647  5.249157  3.549330
  S    -5.834773  0.900254  2.180867
  S    -6.248133  4.769279  2.110429
  S    -2.860786  1.291034 -0.768878
  S    -3.343653  5.364789 -0.697434
  S    -3.595499  2.139099  3.322800
  S    -3.923903  5.568697  3.396676
