16  
    
  C     2.164553  4.482268  2.968457
  C     2.130457  8.588956  3.083299
  C     0.992641  3.920289  2.344556
  C     1.034865  7.819746  2.575290
  N     3.207591  4.562781  2.160985
  N     3.117875  8.676664  2.166894
  N     1.091826  3.812469  1.046586
  N     1.217344  7.243117  1.386724
  N     0.360459  4.267294  4.801731
  N     0.307672  8.479942  4.967362
  S    -0.390522  3.870534  3.387180
  S    -0.383418  7.864995  3.549127
  S     2.677915  4.191818  0.653316
  S     2.605537  7.831688  0.832899
  S     1.988106  4.579650  4.618279
  S     1.875178  9.073347  4.765113
