16  
    
  C    -1.214458  3.114046  2.301582
  C    -0.862977  6.963454  2.294363
  C    -2.480285  2.786818  1.705723
  C    -2.193151  6.664257  1.773041
  N    -0.146613  2.973928  1.527968
  N     0.075480  7.203715  1.406056
  N    -2.435811  2.676695  0.380084
  N    -2.127759  6.454151  0.468031
  N    -2.926235  3.201960  4.249181
  N    -2.382150  6.542545  4.286246
  S    -3.804218  2.888693  2.853398
  S    -3.432021  6.514914  3.002880
  S    -0.786748  2.733271 -0.017471
  S    -0.568063  6.642322 -0.007437
  S    -1.254169  3.246842  4.055005
  S    -0.811764  6.931497  4.029000
