16  
    
  C    -3.177878  2.040643  1.708970
  C    -3.087552  5.895482  1.961696
  C    -4.247328  1.418478  0.985633
  C    -4.405942  5.574508  1.462624
  N    -2.101752  2.383611  1.026321
  N    -2.108547  6.025041  1.093519
  N    -3.989033  1.263740 -0.305985
  N    -4.386116  5.367275  0.163646
  N    -5.032431  1.567436  3.422170
  N    -4.656884  5.371466  4.047041
  S    -5.631271  0.999071  1.955845
  S    -5.636388  5.250917  2.720825
  S    -2.509539  1.878190 -0.532787
  S    -2.831802  5.788378 -0.364641
  S    -3.426777  2.234632  3.442589
  S    -3.093837  5.933635  3.688721
