16  
    
  C     1.829107  4.347872  3.104198
  C     1.963679  8.002810  3.128530
  C     0.549670  3.951632  2.493346
  C     0.779016  7.545587  2.459850
  N     2.878650  4.168746  2.300454
  N     2.923659  8.302069  2.242478
  N     0.655618  3.853544  1.150736
  N     0.869181  7.516429  1.121452
  N     0.217057  4.299035  5.078382
  N     0.153900  7.498565  4.964197
  S    -0.681897  4.013535  3.677762
  S    -0.519829  7.185730  3.480481
  S     2.255863  4.015035  0.779727
  S     2.374737  7.893499  0.708060
  S     1.860306  4.438136  4.845835
  S     1.787294  7.934391  4.884493
