16  
    
  C    -1.259752  3.414521  2.096142
  C    -1.052822  7.054745  2.634128
  C    -2.412741  2.738349  1.644078
  C    -2.348960  6.893965  1.989957
  N    -0.308192  3.715816  1.202500
  N    -0.035306  7.253577  1.781071
  N    -2.400136  2.548490  0.322112
  N    -2.301422  6.778501  0.641836
  N    -2.728772  2.918426  4.193480
  N    -2.809234  6.607981  4.461728
  S    -3.606087  2.417333  2.827456
  S    -3.668421  6.634160  3.059827
  S    -0.956117  3.162813 -0.250774
  S    -0.736781  6.844374  0.331978
  S    -1.136227  3.424142  3.866364
  S    -1.175862  7.038196  4.344728
