16  
    
  C     3.250025  5.407491  3.483244
  C     3.660978  9.286014  3.455824
  C     2.093611  4.801404  2.879264
  C     2.471549  8.693526  2.885764
  N     4.293858  5.521930  2.674530
  N     4.580259  9.537191  2.509217
  N     2.174682  4.710578  1.544643
  N     2.545497  8.468984  1.589742
  N     1.619105  4.985478  5.400868
  N     1.979966  8.746617  5.307440
  S     0.783191  4.490706  4.007948
  S     1.252890  8.168415  3.938042
  S     3.736502  5.160950  1.145825
  S     4.005864  8.895863  1.095509
  S     3.212635  5.355083  5.255894
  S     3.471746  9.443727  5.206517
