16  
    
  C    -4.160996  1.565286  1.849054
  C    -3.910846  5.155995  1.899743
  C    -5.379749  1.074273  1.321309
  C    -5.056446  4.507914  1.370088
  N    -3.213898  1.698082  0.940229
  N    -2.848864  5.269008  1.084240
  N    -5.277825  0.621037  0.062906
  N    -4.904215  4.072063  0.134317
  N    -5.883000  1.731938  3.859015
  N    -5.728422  5.361182  3.757485
  S    -6.649794  0.952483  2.585590
  S    -6.499416  4.687226  2.490698
  S    -3.808382  1.045583 -0.491616
  S    -3.397760  4.628982 -0.430126
  S    -4.236633  1.902936  3.660924
  S    -4.135328  5.716440  3.596384
