16  
    
  C    -2.501203  2.134707  1.995671
  C    -2.502071  5.786027  2.123495
  C    -3.783854  1.988409  1.373204
  C    -3.695033  5.381062  1.395621
  N    -1.498000  2.120825  1.130342
  N    -1.437171  5.719788  1.384522
  N    -3.759549  1.565340  0.110891
  N    -3.467170  5.073033  0.118276
  N    -4.193171  2.245705  3.926522
  N    -4.401161  5.787204  3.779432
  S    -5.079113  2.079824  2.546087
  S    -5.133558  5.301765  2.379040
  S    -2.116641  1.665980 -0.314349
  S    -1.841440  5.409858 -0.145848
  S    -2.581817  2.321285  3.732187
  S    -2.752481  6.001936  3.780240
