16  
    
  C     1.942218  4.177371  3.374819
  C     1.706140  7.803040  3.037741
  C     0.632995  4.206997  2.680761
  C     0.428316  7.611046  2.395132
  N     2.965755  4.369022  2.506970
  N     2.723912  7.955559  2.225892
  N     0.739694  4.153348  1.304325
  N     0.482669  7.651583  1.073540
  N     0.215181  3.948277  5.211490
  N     0.063773  7.367749  4.916194
  S    -0.657320  3.735602  3.818505
  S    -0.785324  7.120638  3.540217
  S     2.318245  4.384706  1.007446
  S     2.079222  7.883049  0.690051
  S     1.795627  4.271893  5.120223
  S     1.685813  7.679370  4.765888
