16  
    
  C     3.206713  4.974820  3.476955
  C     3.312074  9.217456  3.749787
  C     1.984332  4.598266  2.776590
  C     2.166143  8.859236  2.966256
  N     4.247788  5.142062  2.679158
  N     4.506380  9.217320  3.105206
  N     2.084308  4.551823  1.465332
  N     2.481710  8.619623  1.650102
  N     1.381661  5.150778  5.212706
  N     1.408337  8.945878  5.491963
  S     0.583352  4.617615  3.799905
  S     0.672702  8.791850  4.001670
  S     3.733266  4.791964  1.114897
  S     4.130216  9.010294  1.502762
  S     3.040670  5.234558  5.176719
  S     3.120467  9.248145  5.406802
