16  
    
  C    -1.560452  2.791824  2.128320
  C    -1.327425  6.718638  2.220163
  C    -2.508923  1.911567  1.537660
  C    -2.560203  6.336706  1.642094
  N    -0.452021  3.047893  1.380739
  N    -0.337878  6.729087  1.335083
  N    -2.265833  1.615328  0.240650
  N    -2.515116  5.940228  0.386602
  N    -3.405926  2.472608  3.892045
  N    -2.887736  6.406916  4.120897
  S    -3.929070  1.675375  2.489090
  S    -3.877558  6.184255  2.795615
  S    -0.817785  2.383066 -0.094419
  S    -0.973008  6.296214 -0.136865
  S    -1.814334  3.016166  3.897131
  S    -1.330490  6.983437  3.903763
