16  
    
  C     0.735261  3.658594  3.165061
  C     1.167778  7.570639  2.906724
  C    -0.492704  3.459848  2.477008
  C     0.026219  7.004799  2.232291
  N     1.700666  4.099571  2.326190
  N     2.243726  7.625473  2.120607
  N    -0.356502  3.349260  1.145209
  N     0.226652  6.753017  0.931501
  N    -0.997327  3.254162  5.025396
  N    -0.776089  7.538348  4.592198
  S    -1.787873  3.078484  3.617275
  S    -1.391898  6.860730  3.164599
  S     1.216062  3.687232  0.844007
  S     1.797098  7.176380  0.628123
  S     0.637846  3.654639  4.903781
  S     0.840559  7.958662  4.539137
