16  
    
  C    -1.743532  2.317160  1.972868
  C    -1.696832  6.327607  2.172594
  C    -2.952025  2.092003  1.259374
  C    -2.871049  5.789248  1.496606
  N    -0.731639  2.482582  1.128818
  N    -0.649310  6.412351  1.376002
  N    -2.877870  1.822739 -0.064233
  N    -2.753002  5.674753  0.169530
  N    -3.538062  2.226762  3.800126
  N    -3.629807  6.208632  3.876859
  S    -4.315840  1.895978  2.326975
  S    -4.234736  5.575637  2.467590
  S    -1.276663  2.203374 -0.409313
  S    -1.186429  5.903501 -0.165079
  S    -1.866134  2.370101  3.687146
  S    -2.048010  6.767479  3.766658
