16  
    
  C     0.692039  3.993769  2.951989
  C     0.680925  7.569849  2.677026
  C    -0.496971  3.372030  2.364169
  C    -0.497944  6.902691  2.207702
  N     1.770962  4.037108  2.141175
  N     1.622173  7.823953  1.759175
  N    -0.420496  3.317572  1.041090
  N    -0.458199  6.455900  0.959319
  N    -1.036979  3.782520  4.822403
  N    -0.989023  7.402474  4.749699
  S    -1.817880  3.166680  3.433937
  S    -1.758199  6.670556  3.458969
  S     1.206705  3.408576  0.641060
  S     0.961031  7.098056  0.360703
  S     0.475013  4.327008  4.616192
  S     0.561189  7.937203  4.510168
