16  
    
  C    -3.129411  1.689231  2.062349
  C    -3.175831  5.610076  2.101780
  C    -4.359471  1.422638  1.351199
  C    -4.333176  4.971395  1.473140
  N    -2.167072  2.007299  1.197058
  N    -2.173332  5.864227  1.291821
  N    -4.280750  1.331921  0.052449
  N    -4.139011  4.746324  0.194723
  N    -5.087482  1.587284  3.787733
  N    -4.798170  5.033162  4.033625
  S    -5.763585  1.254103  2.297777
  S    -5.558872  4.599732  2.578500
  S    -2.713906  1.738295 -0.310478
  S    -2.684492  5.399894 -0.256807
  S    -3.442697  1.936600  3.681367
  S    -3.362587  5.866641  3.837393
