16  
    
  C    -0.470167  3.240950  2.943436
  C    -1.113030  6.828089  2.726528
  C    -1.721953  2.929159  2.246115
  C    -2.165118  6.275442  1.945960
  N     0.582397  3.352413  2.134296
  N     0.057867  6.971669  2.126490
  N    -1.516965  2.610713  0.969238
  N    -1.819966  6.095926  0.684068
  N    -2.363706  3.419491  4.771601
  N    -3.039357  6.268968  4.221289
  S    -3.016016  2.729671  3.357893
  S    -3.653987  5.960183  2.709509
  S     0.075181  3.023958  0.630026
  S    -0.229436  6.613731  0.536428
  S    -0.687592  3.771738  4.570747
  S    -1.503946  6.859711  4.402346
