16  
    
  C    -3.127715  1.910208  1.780341
  C    -3.158542  5.852783  2.044715
  C    -4.212719  1.325691  1.027786
  C    -4.416693  5.438956  1.460435
  N    -2.152435  2.310456  1.004844
  N    -2.191640  6.029265  1.165193
  N    -3.983328  1.167578 -0.267583
  N    -4.392324  5.411658  0.156220
  N    -5.049947  1.573972  3.457177
  N    -4.655641  5.382127  3.986911
  S    -5.688850  1.102262  2.020881
  S    -5.614790  5.218180  2.630647
  S    -2.442207  1.864307 -0.543649
  S    -2.882671  5.777951 -0.326668
  S    -3.540560  2.191109  3.406824
  S    -3.109421  5.891724  3.769056
