16  
    
  C     1.537256  4.427808  3.419888
  C     1.382966  7.975277  3.105198
  C     0.247732  4.045661  2.940695
  C     0.150689  7.606341  2.449468
  N     2.568954  4.362392  2.524167
  N     2.428266  8.080847  2.298518
  N     0.159612  4.081839  1.609241
  N     0.302707  7.594589  1.153553
  N    -0.127454  4.694258  5.472089
  N    -0.414242  7.798536  4.903469
  S    -1.018107  4.198649  4.135429
  S    -1.180438  7.346532  3.467302
  S     1.737005  4.116487  1.042796
  S     1.871230  7.921195  0.737882
  S     1.549301  4.853038  5.119243
  S     1.190502  8.208300  4.792018
