16  
    
  C     0.414755  3.498607  2.967263
  C     0.425712  7.547778  2.837909
  C    -0.831976  3.477130  2.310901
  C    -0.873437  7.245838  2.282042
  N     1.433622  3.657966  2.127564
  N     1.386490  7.729321  1.923458
  N    -0.831031  3.578697  0.987795
  N    -0.920274  7.274391  0.934058
  N    -1.276204  3.064069  4.838629
  N    -1.155632  7.605395  4.906787
  S    -2.126218  3.000719  3.363938
  S    -2.156298  7.391894  3.625178
  S     0.767196  3.939046  0.618708
  S     0.624539  7.506802  0.465297
  S     0.334822  3.388724  4.713848
  S     0.470107  7.665535  4.632357
