16  
    
  C     1.260518  4.703599  3.260480
  C     1.461546  7.983551  3.125089
  C     0.021082  4.100402  2.777831
  C     0.223260  7.847469  2.433641
  N     2.195561  4.826178  2.324098
  N     2.515452  7.930538  2.319278
  N    -0.106413  3.979965  1.451960
  N     0.372580  7.562530  1.147571
  N    -0.169834  4.268279  5.402434
  N    -0.345308  8.070839  4.945970
  S    -1.118604  4.052050  4.047232
  S    -1.096800  8.118868  3.462159
  S     1.442269  4.317570  0.876793
  S     2.003293  7.670425  0.774947
  S     1.441715  4.653041  5.003963
  S     1.328481  8.117315  4.826081
