16  
    
  C     0.661283  3.837220  2.915689
  C     0.608152  7.628709  2.738770
  C    -0.557715  3.604499  2.240361
  C    -0.491822  6.886306  2.284561
  N     1.702388  3.943965  2.068969
  N     1.480149  7.770697  1.769238
  N    -0.412231  3.201290  0.942276
  N    -0.489400  6.520186  1.037825
  N    -1.055345  3.657210  4.800282
  N    -0.959120  7.345579  4.762324
  S    -1.763360  3.196143  3.439758
  S    -1.742063  6.654209  3.443813
  S     1.147899  3.567862  0.602967
  S     0.922628  7.088734  0.383774
  S     0.545559  4.214662  4.639980
  S     0.570491  8.025279  4.417838
