16  
    
  C     1.065708  4.099697  2.643338
  C     1.094142  7.883399  3.131261
  C    -0.076940  3.503534  2.065679
  C    -0.109697  7.442949  2.522462
  N     2.067712  4.339208  1.783999
  N     2.168352  7.936342  2.327647
  N     0.077123  2.961782  0.851165
  N    -0.040084  7.244756  1.199250
  N    -0.853092  4.246703  4.384740
  N    -0.615381  7.706404  5.106942
  S    -1.420185  3.325164  3.158931
  S    -1.443816  7.405101  3.714808
  S     1.634230  3.458832  0.390550
  S     1.527226  7.509004  0.791605
  S     0.773131  4.728990  4.217448
  S     0.986156  8.067468  4.845879
