16  
    
  C     0.615997  3.828712  2.952275
  C     0.655377  7.516506  2.827483
  C    -0.571907  3.236069  2.445371
  C    -0.496572  6.987846  2.163347
  N     1.567048  4.095434  2.049802
  N     1.730283  7.577398  2.036943
  N    -0.462237  2.890841  1.201840
  N    -0.282107  6.814076  0.855442
  N    -1.191929  4.005715  4.844491
  N    -1.134587  7.161696  4.591269
  S    -1.971969  3.301148  3.562841
  S    -1.871245  6.814854  3.171834
  S     1.069043  3.307769  0.716385
  S     1.289590  7.227314  0.464342
  S     0.462843  4.300036  4.626525
  S     0.395807  7.818436  4.520430
