16  
    
  C    -0.333102  3.294739  2.500205
  C    -0.294470  6.908920  2.276211
  C    -1.605229  2.987393  1.979862
  C    -1.548382  6.561490  1.721638
  N     0.627283  3.524428  1.598026
  N     0.664901  7.202457  1.427578
  N    -1.605059  2.639001  0.692369
  N    -1.532906  6.519046  0.379866
  N    -2.013296  3.164718  4.461858
  N    -1.875105  6.698491  4.235558
  S    -2.918628  2.948746  3.120941
  S    -2.797787  6.482430  2.873867
  S    -0.096501  3.079096  0.134560
  S     0.026092  6.839061 -0.031821
  S    -0.384688  3.398333  4.276555
  S    -0.262967  7.153618  3.985950
