16  
    
  C    -3.135444  2.147089  1.687503
  C    -3.072686  5.887529  1.997945
  C    -4.262098  1.628176  0.999060
  C    -4.324101  5.442073  1.412191
  N    -2.071164  2.450396  0.946034
  N    -2.152493  6.121092  1.059176
  N    -4.038416  1.413178 -0.274979
  N    -4.362890  5.422806  0.106470
  N    -4.991216  1.603633  3.441324
  N    -4.616980  5.427533  3.991631
  S    -5.466608  0.959269  2.040156
  S    -5.531022  5.313912  2.685077
  S    -2.479158  1.953475 -0.603120
  S    -2.843952  5.707742 -0.444939
  S    -3.477993  2.202580  3.432056
  S    -3.031343  6.014010  3.793160
