16  
    
  C    -2.563345  2.294024  2.323179
  C    -2.712588  5.848934  2.040569
  C    -3.730503  1.875237  1.606564
  C    -3.916287  5.333424  1.338943
  N    -1.661563  2.804108  1.510687
  N    -1.644876  6.053746  1.298600
  N    -3.611645  1.804575  0.262115
  N    -3.714554  5.213485  0.026419
  N    -4.289348  1.973918  4.099265
  N    -4.494243  5.428501  3.909399
  S    -5.038481  1.566705  2.703170
  S    -5.213257  4.896659  2.537911
  S    -2.126346  2.468508 -0.051867
  S    -2.188055  5.723395 -0.307449
  S    -2.737793  2.437021  4.024278
  S    -2.858628  5.714140  3.767857
