16  
    
  C     2.010907  5.018258  3.205060
  C     2.011881  8.527784  3.331867
  C     0.916339  4.434276  2.390189
  C     0.806589  8.238948  2.628843
  N     3.100634  5.165719  2.447447
  N     3.082496  8.710284  2.584136
  N     1.044307  4.520480  1.050684
  N     0.901992  8.338642  1.308637
  N     0.227802  4.468557  4.829731
  N     0.286937  8.377834  5.155983
  S    -0.532342  4.204499  3.376931
  S    -0.501723  7.906819  3.790786
  S     2.641832  4.953245  0.850581
  S     2.540056  8.691138  0.993276
  S     1.695631  5.130615  4.953906
  S     1.879271  8.829552  4.965063
