16  
    
  C    -3.608343  1.792296  1.811566
  C    -3.548343  5.667495  1.800028
  C    -4.630765  1.010964  1.249955
  C    -4.809442  5.282018  1.178412
  N    -2.668458  2.193291  0.999283
  N    -2.575902  5.871062  0.933749
  N    -4.374039  0.626297  0.015758
  N    -4.773994  5.299582 -0.150170
  N    -5.371417  1.505803  3.650116
  N    -5.372148  5.250070  3.711687
  S    -5.902044  0.666924  2.288482
  S    -6.145230  4.953302  2.218399
  S    -3.005529  1.463823 -0.404874
  S    -3.183602  5.566599 -0.582156
  S    -3.820296  2.201752  3.477727
  S    -3.798672  5.711722  3.484926
