16  
    
  C    -3.548835  1.836615  1.834866
  C    -3.611164  5.729819  1.764154
  C    -4.547327  0.917582  1.252652
  C    -4.824858  5.333052  1.137377
  N    -2.540503  2.170585  1.019646
  N    -2.549022  5.874936  0.934216
  N    -4.389546  0.633869 -0.056592
  N    -4.742880  5.286621 -0.175341
  N    -5.316931  1.521091  3.617928
  N    -5.400810  5.161373  3.584341
  S    -5.913390  0.724023  2.301790
  S    -6.177006  4.939901  2.161000
  S    -2.989956  1.429750 -0.462119
  S    -3.175824  5.627814 -0.566904
  S    -3.803779  2.143356  3.441339
  S    -3.771136  5.718121  3.522231
