16  
    
  C    -3.696328  1.739653  1.821699
  C    -3.936709  5.373545  1.817997
  C    -4.925315  1.487608  1.192673
  C    -5.079468  4.947369  1.071963
  N    -2.746145  1.974498  0.919382
  N    -2.856307  5.750396  1.136304
  N    -4.892731  1.350259 -0.151630
  N    -4.911498  5.102141 -0.228075
  N    -5.500551  1.619283  3.764364
  N    -5.771394  4.660471  3.537565
  S    -6.252870  1.110286  2.355922
  S    -6.525682  4.526281  2.049103
  S    -3.328118  1.723456 -0.585249
  S    -3.324965  5.539450 -0.517129
  S    -3.828484  1.774288  3.592522
  S    -4.233886  5.440591  3.528724
