16  
    
  C    -1.129255  3.045552  2.386643
  C    -0.789172  6.932824  2.258038
  C    -2.385895  2.813007  1.760736
  C    -2.056603  6.548895  1.683681
  N    -0.090425  3.096073  1.557122
  N     0.259023  6.887002  1.404195
  N    -2.322607  2.505439  0.476284
  N    -2.012222  6.314306  0.347114
  N    -2.941902  3.168553  4.195573
  N    -2.364441  6.540600  4.292312
  S    -3.762464  3.028312  2.792515
  S    -3.261386  6.421268  2.911434
  S    -0.711575  2.663291  0.066742
  S    -0.477573  6.617789 -0.081087
  S    -1.314189  3.266819  4.119884
  S    -0.709890  6.917235  4.031693
