16  
    
  C     3.573313  5.192184  3.586858
  C     3.452433  9.101256  3.566637
  C     2.343804  5.010248  2.885418
  C     2.342132  8.503085  2.909459
  N     4.554815  5.607461  2.765824
  N     4.500970  9.432779  2.760375
  N     2.430531  4.946498  1.563564
  N     2.487733  8.362091  1.598251
  N     1.810550  5.085157  5.514727
  N     1.679319  8.630574  5.369538
  S     0.978051  4.840144  4.049448
  S     0.981732  8.106456  3.909568
  S     4.047790  5.368977  1.246816
  S     3.982969  9.058427  1.262815
  S     3.414297  5.429737  5.294554
  S     3.236284  9.268793  5.215308
