16  
    
  C     0.588373  3.718398  3.120199
  C     1.107548  7.565162  2.698640
  C    -0.519547  3.228954  2.274701
  C    -0.072692  6.958038  2.006846
  N     1.622862  4.179388  2.403009
  N     2.065137  7.889930  1.842332
  N    -0.115773  3.084871  1.035803
  N     0.017970  6.948998  0.668012
  N    -1.347911  3.059974  4.684946
  N    -0.696216  6.965295  4.553222
  S    -1.897289  2.557568  3.157366
  S    -1.421050  6.557700  3.067304
  S     1.314592  3.869354  0.847367
  S     1.550375  7.541798  0.321387
  S     0.095605  3.784161  4.743396
  S     0.853665  7.609643  4.426188
