16  
    
  C    -0.330715  3.298474  2.636297
  C    -0.243834  6.907058  2.452706
  C    -1.474982  2.680467  2.098591
  C    -1.412739  6.183565  1.877601
  N     0.690817  3.413534  1.764372
  N     0.671352  7.269428  1.559456
  N    -1.464599  2.471239  0.787084
  N    -1.299989  5.894752  0.565634
  N    -2.022921  2.851653  4.573982
  N    -2.001097  6.810132  4.380127
  S    -2.839580  2.517558  3.204915
  S    -2.665028  5.945052  3.150114
  S     0.044634  2.918650  0.292845
  S     0.191492  6.529966  0.098697
  S    -0.446631  3.389828  4.379277
  S    -0.488705  7.476110  4.071589
