16  
    
  C    -1.857333  2.444156  2.628880
  C    -1.750052  5.936115  2.294048
  C    -3.045726  1.979738  1.879705
  C    -3.043511  5.577040  1.654192
  N    -0.835111  2.681584  1.828172
  N    -0.807153  6.253656  1.443463
  N    -2.870686  1.895051  0.558958
  N    -2.961474  5.498153  0.329079
  N    -3.702214  2.087855  4.348105
  N    -3.433756  5.660585  4.245622
  S    -4.442799  1.613299  2.924622
  S    -4.349570  5.472503  2.857775
  S    -1.293297  2.213404  0.280288
  S    -1.439067  5.998746 -0.040862
  S    -2.117746  2.530851  4.291721
  S    -1.754316  5.999341  4.067894
