16  
    
  C    -5.550488  0.868404  1.429224
  C    -5.359593  5.009182  1.191681
  C    -6.788076  0.437091  0.774372
  C    -6.541638  4.375718  0.693080
  N    -4.493428  1.113982  0.634195
  N    -4.387470  5.254683  0.329231
  N    -6.659789  0.242885 -0.526698
  N    -6.477320  4.145635 -0.618114
  N    -7.366085  0.889467  3.270584
  N    -6.783181  4.368991  3.269942
  S    -8.074868  0.166920  1.915858
  S    -7.696116  3.886703  1.974617
  S    -5.028396  0.617736 -0.916784
  S    -4.965433  4.653583 -1.124029
  S    -5.651794  1.021272  3.230832
  S    -5.315314  5.011724  2.910649
