16  
    
  C     0.575133  3.562974  2.721365
  C     0.630743  7.632504  2.703892
  C    -0.685016  3.307459  2.080127
  C    -0.567469  7.070662  2.043569
  N     1.560355  3.693122  1.838641
  N     1.509865  7.996775  1.811267
  N    -0.676036  3.395493  0.735695
  N    -0.398284  6.944835  0.722735
  N    -1.050341  3.249053  4.666845
  N    -0.971548  7.147695  4.639679
  S    -1.883105  2.979474  3.217591
  S    -1.749431  6.656578  3.263161
  S     0.876740  3.645278  0.367949
  S     1.051038  7.663958  0.275483
  S     0.533412  3.521814  4.505291
  S     0.554911  7.738198  4.391171
