16  
    
  C    -5.359064  1.149344  1.419970
  C    -5.353953  4.626703  1.587674
  C    -6.584726  0.700099  0.794969
  C    -6.609563  4.174255  1.131137
  N    -4.323948  1.189210  0.556633
  N    -4.431977  4.765441  0.613316
  N    -6.438455  0.501087 -0.514347
  N    -6.717317  4.034760 -0.196542
  N    -7.051006  0.970687  3.255903
  N    -6.962199  4.464138  3.685179
  S    -7.897247  0.580656  1.917244
  S    -7.872456  4.200986  2.296387
  S    -4.866472  0.831965 -0.937979
  S    -5.209455  4.381855 -0.831324
  S    -5.468669  1.378738  3.155554
  S    -5.388583  4.773177  3.337033
