16  
    
  C     0.482315  3.592037  2.935120
  C     0.561021  7.516814  2.880260
  C    -0.829663  3.656442  2.394758
  C    -0.567990  7.012400  2.172717
  N     1.450673  3.717831  2.042859
  N     1.657088  7.679354  2.122181
  N    -0.889982  3.494855  1.063321
  N    -0.407219  6.832710  0.861804
  N    -1.125555  3.543679  4.959699
  N    -1.421729  7.257420  4.615140
  S    -2.012381  3.296124  3.577984
  S    -2.069929  7.057226  3.094143
  S     0.740551  3.806329  0.541028
  S     1.236536  7.212822  0.581607
  S     0.541820  3.701469  4.683063
  S     0.189583  7.751962  4.614121
