16  
    
  C    -4.042039  1.403556  1.677445
  C    -4.070155  5.175666  1.965106
  C    -5.369832  1.306046  1.014948
  C    -5.300269  5.032407  1.256198
  N    -2.960546  1.329678  0.897534
  N    -3.036967  5.311297  1.110313
  N    -5.211747  1.117899 -0.281481
  N    -5.253536  5.197175 -0.053978
  N    -5.873908  1.591413  3.573248
  N    -5.886230  4.827032  3.775334
  S    -6.719891  1.320661  2.108658
  S    -6.672795  4.918349  2.293007
  S    -3.537582  1.121203 -0.685986
  S    -3.638887  5.347394 -0.396975
  S    -4.229736  1.677760  3.370759
  S    -4.272594  5.253372  3.686139
