16  
    
  C    -4.308371  1.580219  1.957144
  C    -4.610933  5.086406  1.665086
  C    -5.518134  1.023584  1.370029
  C    -5.795771  4.587322  1.084215
  N    -3.291865  1.793233  1.101258
  N    -3.618938  5.372428  0.807022
  N    -5.403187  0.777441  0.088119
  N    -5.730479  4.311954 -0.236887
  N    -6.077004  1.265694  3.891581
  N    -6.337881  4.651739  3.702316
  S    -6.831339  0.753395  2.544879
  S    -7.107963  4.333610  2.222077
  S    -3.844353  1.241396 -0.360434
  S    -4.227144  4.823214 -0.684088
  S    -4.580627  1.835349  3.677051
  S    -4.846690  5.368997  3.484820
