16  
    
  C     2.620226  4.982172  3.596275
  C     2.276738  8.834852  3.392738
  C     1.366126  4.510440  3.063876
  C     1.281451  7.996355  2.831770
  N     3.579880  5.237091  2.707965
  N     3.299511  9.145532  2.567783
  N     1.505167  4.154345  1.785751
  N     1.592661  7.522954  1.615501
  N     0.979110  4.947015  5.640604
  N     0.478782  8.175128  5.262544
  S     0.215156  4.177500  4.379756
  S    -0.089337  7.588250  3.736800
  S     3.039570  4.586294  1.309320
  S     2.943490  8.275157  1.205495
  S     2.530165  5.442734  5.285093
  S     1.861342  9.078838  5.113768
