16  
    
  C    -4.202173  1.352093  1.833590
  C    -4.100618  5.108810  1.987179
  C    -5.461383  1.311279  1.052178
  C    -5.417229  4.837193  1.374547
  N    -3.121502  1.400481  1.078611
  N    -3.152938  5.071709  1.059479
  N    -5.276907  1.078995 -0.260153
  N    -5.361050  4.527396  0.071996
  N    -6.103897  1.568105  3.600090
  N    -5.888723  5.351126  3.867900
  S    -6.813834  1.243184  2.154794
  S    -6.712992  5.020970  2.514578
  S    -3.567062  1.150593 -0.536613
  S    -3.781772  4.791725 -0.413881
  S    -4.455393  1.495990  3.550757
  S    -4.245670  5.386837  3.747660
