16  
    
  C    -0.779594  2.958813  2.498165
  C    -1.171217  6.490863  2.516291
  C    -1.976172  2.525503  1.876615
  C    -2.317860  5.924431  1.819678
  N     0.286017  2.966268  1.720416
  N    -0.185187  6.812913  1.687719
  N    -1.858674  2.477388  0.557376
  N    -2.178899  5.845139  0.477759
  N    -2.471200  2.825402  4.341210
  N    -2.946355  5.993660  4.415102
  S    -3.302662  2.421893  3.017204
  S    -3.687970  5.618013  2.938692
  S    -0.259230  2.723759  0.204166
  S    -0.502078  6.259070  0.129357
  S    -0.932414  3.275783  4.208219
  S    -1.417537  6.552185  4.218979
