16  
    
  C    -5.452820  1.217094  1.261274
  C    -5.436403  4.829593  1.595794
  C    -6.563153  0.578973  0.611909
  C    -6.632937  4.387617  0.918285
  N    -4.394466  1.466191  0.500083
  N    -4.425522  5.017589  0.769519
  N    -6.441269  0.527770 -0.717724
  N    -6.549792  4.336557 -0.395435
  N    -7.129646  0.625451  3.127925
  N    -7.290051  4.681095  3.337805
  S    -7.792756  0.092099  1.713220
  S    -7.978026  4.108175  1.939703
  S    -4.891646  1.019918 -1.059794
  S    -4.999679  4.764834 -0.763162
  S    -5.612264  1.173538  3.014308
  S    -5.636453  4.939527  3.316167
