16  
    
  C    -1.842468  2.373964  2.546322
  C    -1.805589  6.126561  2.319171
  C    -3.028924  1.968990  1.779807
  C    -3.038985  5.593293  1.737839
  N    -0.805793  2.539111  1.705815
  N    -0.817042  6.339245  1.411956
  N    -2.856214  1.735128  0.467304
  N    -3.047736  5.538833  0.400353
  N    -3.688133  2.111834  4.301394
  N    -3.393888  5.668790  4.269919
  S    -4.350062  1.635808  2.848247
  S    -4.270229  5.407396  2.916643
  S    -1.312549  2.248114  0.173813
  S    -1.480671  5.934954 -0.049332
  S    -2.107349  2.593718  4.214602
  S    -1.878965  6.269392  4.006539
