16  
    
  C     1.879971  5.032162  3.156007
  C     2.250991  8.661491  3.243427
  C     0.778648  4.566665  2.326208
  C     1.054051  8.143745  2.556919
  N     2.927508  5.400105  2.396479
  N     3.198044  8.984969  2.357374
  N     1.092688  4.264343  1.056191
  N     1.140056  7.951892  1.260566
  N    -0.036842  4.828573  4.834516
  N     0.447441  8.078815  5.052915
  S    -0.569466  4.084429  3.366063
  S    -0.302302  7.747241  3.570969
  S     2.696140  4.818840  0.850776
  S     2.668388  8.503694  0.870653
  S     1.647204  5.291320  4.852468
  S     2.041764  8.501440  5.000091
