16  
    
  C     3.108222  5.213179  3.403189
  C     3.211258  8.946991  3.599206
  C     1.987957  4.490709  2.761512
  C     1.995254  8.626051  2.890975
  N     4.182695  5.339258  2.644726
  N     4.334253  9.125105  2.944750
  N     2.143612  4.380105  1.459851
  N     2.179691  8.605549  1.603633
  N     1.310202  4.851896  5.158879
  N     1.475436  8.966946  5.432784
  S     0.658957  4.218114  3.728473
  S     0.660852  8.548669  4.064471
  S     3.700096  4.933439  1.107752
  S     3.882003  8.938251  1.356895
  S     2.877269  5.366134  5.097659
  S     3.065501  9.268618  5.303064
