16  
    
  C    -1.916951  2.411289  2.572013
  C    -1.690916  5.848583  2.322525
  C    -3.119220  1.917451  1.888139
  C    -2.950458  5.770792  1.592940
  N    -0.859150  2.659107  1.799202
  N    -0.563655  5.865435  1.564843
  N    -2.967487  1.969044  0.579944
  N    -2.737791  5.705102  0.287330
  N    -3.702643  2.106062  4.400029
  N    -3.603958  5.540750  4.128805
  S    -4.454908  1.976512  2.934492
  S    -4.328663  5.336976  2.660641
  S    -1.426512  2.460736  0.231429
  S    -1.119790  5.884239  0.034724
  S    -2.087922  2.431242  4.317710
  S    -1.964368  5.857114  4.009535
