16  
    
  C    -4.326049  1.768548  1.914625
  C    -4.364638  5.199600  1.753658
  C    -5.464947  1.089281  1.298945
  C    -5.585507  4.763694  1.218742
  N    -3.203549  1.709398  1.204254
  N    -3.385499  5.242100  0.845796
  N    -5.226651  0.704951  0.038311
  N    -5.605463  4.554120 -0.076955
  N    -6.062827  1.478238  3.697992
  N    -6.088144  5.129891  3.661129
  S    -6.831817  0.986839  2.253620
  S    -6.953171  4.650228  2.235413
  S    -3.619714  0.974410 -0.258640
  S    -4.066746  4.831920 -0.604527
  S    -4.501044  2.148194  3.593341
  S    -4.421962  5.641259  3.433279
