16  
    
  C    -4.097335  1.430796  1.678398
  C    -4.103068  5.238673  1.925987
  C    -5.320610  1.199503  0.997033
  C    -5.395977  5.102469  1.238535
  N    -2.991270  1.253579  0.953818
  N    -3.049113  5.237221  1.128870
  N    -5.202267  1.147502 -0.343281
  N    -5.288469  5.138830 -0.108853
  N    -5.946063  1.564646  3.555257
  N    -5.913434  4.831046  3.836746
  S    -6.722280  1.325259  2.117956
  S    -6.665078  4.922613  2.363624
  S    -3.564569  1.126825 -0.682651
  S    -3.635756  5.252858 -0.405994
  S    -4.285838  1.675145  3.384624
  S    -4.281560  5.266280  3.698466
