16  
    
  C    -1.761188  2.416058  2.047841
  C    -1.904276  6.513384  2.122381
  C    -3.017426  2.139723  1.443782
  C    -2.857142  5.555934  1.635410
  N    -0.775284  2.622479  1.158926
  N    -0.879991  6.713278  1.266868
  N    -2.982248  1.893300  0.126289
  N    -2.676465  5.119570  0.392877
  N    -3.430634  2.088772  3.996659
  N    -3.594668  6.184957  4.123379
  S    -4.348471  1.870223  2.632682
  S    -4.266044  5.360700  2.839547
  S    -1.412661  2.129137 -0.335135
  S    -1.324046  5.923117 -0.131564
  S    -1.840727  2.598425  3.742384
  S    -2.138361  6.946943  3.888266
