16  
    
  C    -0.431677  3.430139  2.725681
  C    -0.321429  7.044886  2.542606
  C    -1.377276  2.493777  2.082541
  C    -1.503178  6.422194  1.859423
  N     0.647336  3.598471  1.950419
  N     0.747741  7.130801  1.741567
  N    -1.154586  2.214157  0.783020
  N    -1.190632  6.013216  0.612293
  N    -2.262156  3.073713  4.488268
  N    -2.157723  7.010231  4.311682
  S    -2.804524  2.306239  3.057462
  S    -2.856436  6.307715  2.976821
  S     0.357882  2.828626  0.478957
  S     0.306442  6.562666  0.264099
  S    -0.725645  3.720410  4.419992
  S    -0.579039  7.469604  4.135431
