16  
    
  C    -4.030799  1.396405  1.666709
  C    -4.005983  5.115586  1.952936
  C    -5.297390  1.371465  1.033599
  C    -5.261779  5.019564  1.283782
  N    -2.992237  1.399765  0.850866
  N    -2.990255  5.393103  1.170237
  N    -5.209010  1.095905 -0.268603
  N    -5.217666  5.212616 -0.026270
  N    -5.805670  1.600331  3.517038
  N    -5.856205  4.861800  3.691703
  S    -6.704338  1.321217  2.103009
  S    -6.702364  4.901707  2.243078
  S    -3.543155  1.129053 -0.641603
  S    -3.643962  5.434478 -0.408607
  S    -4.162346  1.677045  3.382682
  S    -4.250285  5.232024  3.680936
