16  
    
  C    -1.469693  3.292065  1.972866
  C    -1.025814  6.979574  2.448190
  C    -2.583015  2.595735  1.388776
  C    -2.282730  6.778088  1.819940
  N    -0.546203  3.799400  1.138127
  N     0.045188  7.036405  1.620161
  N    -2.324469  2.270445  0.140983
  N    -2.264859  6.817889  0.462386
  N    -3.144301  2.743973  3.871460
  N    -2.661858  6.657736  4.477627
  S    -3.839016  2.156262  2.498552
  S    -3.562740  6.635540  3.070999
  S    -0.926439  3.056167 -0.311786
  S    -0.656142  6.776962  0.113474
  S    -1.668432  3.452701  3.726363
  S    -1.066794  7.090200  4.174544
