16  
    
  C    -1.216522  3.115834  2.295325
  C    -0.863947  6.972698  2.298774
  C    -2.490825  2.789140  1.707970
  C    -2.192060  6.665237  1.766219
  N    -0.143173  2.967185  1.524556
  N     0.076931  7.204033  1.408372
  N    -2.436578  2.680044  0.384535
  N    -2.129633  6.451727  0.465171
  N    -2.922322  3.201387  4.244066
  N    -2.392622  6.544473  4.291745
  S    -3.804336  2.883178  2.856414
  S    -3.432650  6.517863  3.009108
  S    -0.789625  2.738769 -0.020018
  S    -0.575705  6.647392 -0.008938
  S    -1.253948  3.247169  4.051939
  S    -0.819654  6.931666  4.034209
