16  
    
  C    -1.255745  3.402865  2.097279
  C    -1.055707  7.053417  2.626887
  C    -2.416510  2.746157  1.640398
  C    -2.348633  6.888018  1.989471
  N    -0.310215  3.724352  1.203276
  N    -0.038504  7.248291  1.778089
  N    -2.405568  2.545700  0.322457
  N    -2.298362  6.786226  0.648042
  N    -2.725971  2.918670  4.195324
  N    -2.814628  6.609834  4.465416
  S    -3.608393  2.422760  2.830971
  S    -3.670184  6.630846  3.058833
  S    -0.953627  3.157108 -0.250401
  S    -0.737242  6.843362  0.329728
  S    -1.132489  3.419512  3.869340
  S    -1.174433  7.042431  4.345167
