16  
    
  C    -1.523030  2.671392  2.282572
  C    -1.477272  6.448976  2.238514
  C    -2.618884  2.077207  1.619634
  C    -2.686221  5.935362  1.665948
  N    -0.362789  2.732700  1.603177
  N    -0.477891  6.731220  1.385633
  N    -2.351881  1.850308  0.331813
  N    -2.636486  5.722559  0.323972
  N    -3.449873  2.456007  4.037122
  N    -3.163902  6.216856  4.215817
  S    -4.046479  1.768416  2.616110
  S    -4.027292  5.911012  2.837999
  S    -0.803500  2.308975  0.060271
  S    -1.025713  6.141474 -0.124401
  S    -1.881311  3.042720  3.978606
  S    -1.558666  6.690671  4.073106
