16  
    
  C    -5.044882  1.194155  1.738010
  C    -4.903900  4.765107  1.590143
  C    -6.176491  0.473738  1.134579
  C    -6.028409  4.143003  0.918172
  N    -3.917423  1.300255  1.010594
  N    -3.829320  5.038076  0.838554
  N    -5.957419  0.250009 -0.174941
  N    -5.777257  3.928009 -0.388910
  N    -6.856332  0.948767  3.617580
  N    -6.767117  4.636364  3.366964
  S    -7.503898  0.141955  2.212871
  S    -7.453915  3.918083  2.004377
  S    -4.409158  0.741820 -0.496951
  S    -4.311246  4.629617 -0.695219
  S    -5.255961  1.494072  3.448469
  S    -5.243050  5.246162  3.251029
