16  
    
  C     1.882214  5.150536  3.105023
  C     2.190144  8.632853  3.260472
  C     0.829586  4.485538  2.387109
  C     0.992840  8.169199  2.622825
  N     3.087050  5.212871  2.472678
  N     3.176027  8.964826  2.422589
  N     1.111478  4.428815  1.072530
  N     1.058401  8.152740  1.327637
  N     0.039794  4.773917  4.778676
  N     0.368505  8.063035  5.075535
  S    -0.526437  4.139175  3.413348
  S    -0.320536  7.793435  3.613695
  S     2.684167  4.894482  0.891815
  S     2.591632  8.507710  0.862425
  S     1.540681  5.274146  4.832007
  S     1.965647  8.566255  5.042256
