16  
    
  C     2.966002  5.076135  3.672252
  C     2.832908  8.923506  3.308869
  C     1.646932  4.951576  3.118953
  C     1.573030  8.445674  2.726139
  N     3.918914  4.842597  2.756642
  N     3.878182  8.829429  2.496100
  N     1.572372  4.873946  1.779198
  N     1.685793  7.952930  1.510573
  N     1.260832  5.555903  5.684650
  N     1.149503  8.783992  5.207326
  S     0.398269  5.332955  4.260742
  S     0.286499  8.528029  3.859711
  S     3.176908  4.733857  1.280807
  S     3.334447  8.135977  1.073121
  S     2.924260  5.395714  5.403504
  S     2.721831  9.019060  5.023326
