16  
    
  C    -1.230479  3.356222  2.150593
  C    -1.091180  6.881368  2.534074
  C    -2.465087  2.713191  1.664282
  C    -2.385020  6.776808  1.892679
  N    -0.274196  3.487952  1.251256
  N    -0.015169  6.946548  1.729680
  N    -2.451137  2.592105  0.346521
  N    -2.307266  6.678963  0.553527
  N    -2.709015  2.934563  4.248288
  N    -2.816448  6.805211  4.486810
  S    -3.659145  2.613421  2.907400
  S    -3.661271  6.544844  3.133709
  S    -0.957744  3.058483 -0.200085
  S    -0.715305  6.989356  0.187254
  S    -1.120330  3.310625  3.880675
  S    -1.208325  7.128556  4.327706
