16  
    
  C     0.850915  3.917295  2.499055
  C     1.511491  8.110663  3.261803
  C    -0.321360  3.303881  1.871499
  C     0.228566  7.990069  2.610128
  N     1.855839  4.112744  1.679790
  N     2.578868  8.258777  2.455524
  N    -0.251306  3.254659  0.525686
  N     0.341380  7.862117  1.290947
  N    -0.788180  3.654506  4.397094
  N    -0.212080  8.032772  5.190011
  S    -1.616221  3.181138  3.006718
  S    -1.083214  7.960769  3.770411
  S     1.318829  3.649950  0.148378
  S     1.898247  8.131716  0.892920
  S     0.758526  4.192502  4.261334
  S     1.481456  8.117613  5.049526
