16  
    
  C    -1.788823  2.167564  2.075321
  C    -1.911146  6.167909  2.129447
  C    -3.046517  1.997062  1.373498
  C    -3.130545  5.773107  1.543924
  N    -0.770610  2.346460  1.219995
  N    -0.922424  6.096629  1.318772
  N    -2.949065  1.873653  0.040852
  N    -3.096288  5.439673  0.275422
  N    -3.762129  2.277242  3.789291
  N    -3.610429  5.668800  3.991165
  S    -4.468430  1.749006  2.371979
  S    -4.503606  5.675974  2.580266
  S    -1.357132  2.125611 -0.291155
  S    -1.532504  5.752184 -0.245138
  S    -2.101944  2.414885  3.722810
  S    -1.970443  6.098459  3.870049
