16  
    
  C    -2.640626  2.590534  2.135340
  C    -2.472471  6.162481  2.116816
  C    -3.854698  2.119033  1.503793
  C    -3.616545  5.559749  1.436226
  N    -1.674723  2.818015  1.252844
  N    -1.400014  6.425727  1.317906
  N    -3.736120  1.734952  0.208606
  N    -3.423256  5.538179  0.096898
  N    -4.325369  2.473049  4.018963
  N    -4.459335  6.123854  3.711189
  S    -5.105318  1.863534  2.698623
  S    -5.049533  5.345613  2.373456
  S    -2.171444  2.189017 -0.216710
  S    -1.856812  6.111684 -0.213133
  S    -2.749462  2.857755  3.843696
  S    -2.897359  6.662888  3.687527
