16  
    
  C    -3.549731  2.081377  1.668629
  C    -3.925424  5.262100  1.616938
  C    -4.709754  1.418896  1.055622
  C    -5.162887  4.699986  1.103066
  N    -2.579231  2.197184  0.738193
  N    -2.944742  5.424812  0.748019
  N    -4.661222  1.296281 -0.274911
  N    -5.102829  4.499185 -0.222397
  N    -5.163757  1.501807  3.567281
  N    -5.629540  5.005126  3.582203
  S    -5.950888  0.972666  2.207270
  S    -6.434494  4.433972  2.262093
  S    -3.132603  1.755355 -0.704236
  S    -3.543095  4.889371 -0.761199
  S    -3.667400  2.132180  3.351096
  S    -4.043174  5.575107  3.322954
