16  
    
  C     2.265622  4.744381  3.169455
  C     2.052990  8.994554  3.414068
  C     1.025023  4.264499  2.552618
  C     0.865528  8.440108  2.736572
  N     3.279603  4.970372  2.296618
  N     3.106143  9.215258  2.634768
  N     0.965890  4.445328  1.221353
  N     1.069940  8.146221  1.452143
  N     0.548230  4.260923  5.044197
  N     0.417925  8.463799  5.283246
  S    -0.308978  3.971840  3.738473
  S    -0.495613  8.341502  3.881402
  S     2.522178  4.970397  0.795215
  S     2.685545  8.585246  1.174334
  S     2.116789  4.710238  4.918724
  S     1.958940  9.017584  5.128121
