16  
    
  C    -2.600494  2.501670  2.366526
  C    -2.679138  5.833927  2.053419
  C    -3.767822  1.914067  1.731277
  C    -3.825845  5.374483  1.339580
  N    -1.705179  2.986741  1.496681
  N    -1.636196  6.166759  1.284756
  N    -3.623877  1.767212  0.428627
  N    -3.762284  5.521804 -0.022243
  N    -4.369296  2.021249  4.171644
  N    -4.540498  5.501263  3.740349
  S    -5.032643  1.389759  2.799237
  S    -5.207302  4.955200  2.326679
  S    -2.256284  2.574208 -0.019327
  S    -2.215539  5.852809 -0.315173
  S    -2.842762  2.605796  4.092552
  S    -2.891385  5.921045  3.750573
