16  
    
  C     3.203194  5.179501  3.478153
  C     3.385944  8.914508  3.668817
  C     1.907128  4.734486  2.920038
  C     2.061296  8.798740  3.100076
  N     4.235567  4.965213  2.638316
  N     4.382643  8.741132  2.825798
  N     2.004682  4.517940  1.595857
  N     2.101869  8.519423  1.801586
  N     1.396755  5.087368  5.383170
  N     1.819320  9.104374  5.643606
  S     0.565025  4.710958  3.991831
  S     0.850879  9.132257  4.320925
  S     3.561994  4.666864  1.152283
  S     3.689349  8.287897  1.405071
  S     3.025803  5.343285  5.278504
  S     3.423351  9.225810  5.430705
