16  
    
  C    -4.053016  1.413207  1.682833
  C    -4.074694  5.191561  1.964146
  C    -5.369523  1.281585  1.009030
  C    -5.328665  5.040277  1.251366
  N    -2.957981  1.312300  0.910367
  N    -3.041604  5.293938  1.102562
  N    -5.210415  1.125040 -0.291642
  N    -5.260140  5.188725 -0.065931
  N    -5.890788  1.587188  3.577207
  N    -5.895736  4.823366  3.792381
  S    -6.720682  1.321765  2.111190
  S    -6.666202  4.920602  2.306044
  S    -3.541050  1.121206 -0.691250
  S    -3.636883  5.328626 -0.395646
  S    -4.242489  1.677193  3.370529
  S    -4.275817  5.256758  3.688207
