16  
    
  C    -5.373531  0.987673  1.575934
  C    -5.158704  4.674642  1.496777
  C    -6.670989  0.735741  0.958686
  C    -6.442044  4.247350  0.959147
  N    -4.307757  1.115427  0.766384
  N    -4.155389  4.592829  0.598823
  N    -6.663064  0.663097 -0.379679
  N    -6.487359  3.960998 -0.355664
  N    -7.147312  1.064542  3.427500
  N    -6.797581  4.506157  3.460186
  S    -7.987771  0.970386  2.063545
  S    -7.732808  4.333368  2.106467
  S    -5.005909  0.912712 -0.778748
  S    -4.944154  4.183846 -0.830862
  S    -5.556968  1.354581  3.274545
  S    -5.204970  5.113474  3.219813
