16  
    
  C     0.571814  3.503910  2.693710
  C     0.611984  7.619811  2.672471
  C    -0.706257  3.403051  2.082230
  C    -0.537175  7.072943  2.033061
  N     1.581339  3.669795  1.877709
  N     1.564815  8.023295  1.836422
  N    -0.678848  3.316774  0.743030
  N    -0.399288  6.994634  0.699364
  N    -1.075412  3.257775  4.639391
  N    -0.955919  7.089425  4.648780
  S    -1.892145  2.940377  3.194519
  S    -1.736572  6.657216  3.230997
  S     0.890613  3.653390  0.366986
  S     1.041170  7.679830  0.286896
  S     0.509280  3.540318  4.521932
  S     0.568718  7.719809  4.377453
