16  
    
  C     1.889160  4.224337  3.181229
  C     1.803576  7.873486  3.047705
  C     0.611747  3.875165  2.639201
  C     0.617993  7.439744  2.434755
  N     2.936564  4.321171  2.309180
  N     2.785468  8.229384  2.269443
  N     0.660299  3.906863  1.295203
  N     0.779883  7.419375  1.117748
  N     0.114966  4.233190  5.194562
  N     0.196960  7.422830  4.989938
  S    -0.757188  4.057494  3.715044
  S    -0.637590  7.089315  3.589365
  S     2.182371  4.112389  0.825785
  S     2.201391  8.081914  0.726363
  S     1.817078  4.197074  4.967476
  S     1.840694  7.828434  4.758978
