16  
    
  C     2.020667  5.001555  3.210009
  C     2.005732  8.537094  3.326531
  C     0.914707  4.434803  2.403347
  C     0.795505  8.243492  2.629765
  N     3.088475  5.170686  2.442971
  N     3.082023  8.693821  2.566422
  N     1.060415  4.538740  1.075569
  N     0.927188  8.320164  1.293424
  N     0.211957  4.480686  4.823687
  N     0.302274  8.348069  5.147385
  S    -0.541386  4.200176  3.358856
  S    -0.499766  7.892131  3.792106
  S     2.641723  4.946511  0.850606
  S     2.550721  8.693059  0.990660
  S     1.685362  5.158496  4.952714
  S     1.887636  8.816513  4.963937
