16  
    
  C     0.907157  3.863550  2.879468
  C     1.074919  7.619874  3.056987
  C    -0.381991  3.527994  2.307637
  C    -0.102359  7.137421  2.490663
  N     1.906596  3.882014  1.947060
  N     2.100073  7.644385  2.239728
  N    -0.326649  3.010486  1.047301
  N     0.008005  6.811332  1.219097
  N    -0.676833  4.036421  4.872094
  N    -0.635673  7.450840  4.919457
  S    -1.563219  3.352118  3.614694
  S    -1.442879  7.060021  3.534896
  S     1.215131  3.315128  0.525898
  S     1.593612  7.080724  0.768603
  S     0.933906  4.373036  4.533124
  S     0.958802  8.005452  4.760510
