16  
    
  C    -3.756183  1.573285  1.837636
  C    -3.985242  5.499074  1.883497
  C    -5.055247  1.391594  1.143145
  C    -5.144825  5.237636  1.079170
  N    -2.780205  1.768100  0.961976
  N    -2.893901  5.788176  1.189559
  N    -4.995641  1.273056 -0.174418
  N    -4.962397  5.143418 -0.241343
  N    -5.490322  1.519784  3.656937
  N    -5.783911  4.625207  3.484302
  S    -6.351442  1.234540  2.265996
  S    -6.459237  4.689435  2.020960
  S    -3.453476  1.539839 -0.555229
  S    -3.394890  5.660636 -0.440572
  S    -3.846292  1.746764  3.507870
  S    -4.235814  5.255475  3.617674
