16  
    
  C     3.202056  4.991538  3.457565
  C     3.329875  9.192025  3.735227
  C     1.992675  4.561342  2.788231
  C     2.164666  8.851496  2.952680
  N     4.269555  5.122735  2.682683
  N     4.519210  9.200677  3.086073
  N     2.084207  4.565610  1.476442
  N     2.496292  8.633642  1.669024
  N     1.366020  5.157260  5.217472
  N     1.418460  8.987897  5.476906
  S     0.595799  4.641189  3.808932
  S     0.686692  8.796179  4.016969
  S     3.724196  4.789470  1.101656
  S     4.119902  9.002640  1.499972
  S     3.026518  5.229878  5.185907
  S     3.114594  9.241396  5.423481
