16  
    
  C     3.458275  5.264342  3.525075
  C     3.576158  9.218754  3.477580
  C     2.190602  5.020363  2.935891
  C     2.433031  8.573597  2.887798
  N     4.434768  5.608308  2.646196
  N     4.631447  9.454873  2.634106
  N     2.234193  4.837656  1.625915
  N     2.518980  8.358224  1.582173
  N     1.676591  4.888208  5.507575
  N     1.829694  8.694665  5.392768
  S     0.947856  4.592483  4.026955
  S     1.204893  8.118064  3.948958
  S     3.806406  5.169696  1.153134
  S     4.017788  9.056702  1.098319
  S     3.245631  5.358525  5.327542
  S     3.380868  9.409009  5.210142
