16  
    
  C    -1.589094  2.723468  2.329616
  C    -1.528278  6.278884  2.358130
  C    -2.716719  2.126943  1.634726
  C    -2.788346  5.890272  1.735706
  N    -0.443344  2.755963  1.645829
  N    -0.504560  6.451001  1.543125
  N    -2.505877  1.987762  0.332888
  N    -2.686152  5.658895  0.467372
  N    -3.503798  2.494799  4.088706
  N    -3.352146  6.216411  4.171583
  S    -4.077254  1.913882  2.626828
  S    -4.079309  5.596478  2.824115
  S    -0.876408  2.208065  0.152223
  S    -1.150109  6.134776  0.038443
  S    -1.906232  2.971286  4.062355
  S    -1.713547  6.555321  4.004614
