16  
    
  C     2.543855  4.656560  3.533728
  C     2.510653  8.769013  3.443706
  C     1.343283  4.336570  2.772463
  C     1.263551  8.246682  2.917813
  N     3.525879  5.034611  2.737010
  N     3.438471  8.877282  2.536971
  N     1.487470  4.304068  1.460709
  N     1.315916  7.868352  1.666433
  N     0.544434  4.419854  5.156210
  N     1.026069  8.414143  5.497343
  S    -0.024927  3.929587  3.749837
  S     0.048904  8.049154  4.144263
  S     3.060100  4.748943  1.110463
  S     2.802233  8.381815  1.060661
  S     2.110905  4.951083  5.240289
  S     2.580834  8.853680  5.172618
