16  
    
  C    -5.493539  0.912533  1.393729
  C    -5.061692  4.902726  1.348757
  C    -6.684422  0.456224  0.764824
  C    -6.149570  4.202523  0.828979
  N    -4.526955  1.232381  0.544444
  N    -4.269871  5.365257  0.392344
  N    -6.526095  0.265682 -0.566889
  N    -6.163311  4.074195 -0.490487
  N    -7.201539  0.471721  3.275245
  N    -6.611737  4.359119  3.252770
  S    -8.023816  0.148878  1.785127
  S    -7.419665  3.878541  1.889647
  S    -5.038688  0.830429 -0.981805
  S    -4.858528  4.900194 -1.094488
  S    -5.700437  1.196308  3.075333
  S    -5.263057  5.307653  3.012789
