16  
    
  C    -5.518479  0.906232  1.366533
  C    -5.024807  4.895566  1.375610
  C    -6.695080  0.449536  0.749858
  C    -6.153600  4.187752  0.839975
  N    -4.546861  1.240497  0.519070
  N    -4.253905  5.376334  0.399187
  N    -6.504460  0.296576 -0.575835
  N    -6.135071  4.075702 -0.482360
  N    -7.197687  0.462272  3.264191
  N    -6.623626  4.360767  3.256846
  S    -8.022922  0.137349  1.777437
  S    -7.422880  3.871805  1.898882
  S    -5.021636  0.845473 -0.990574
  S    -4.843059  4.925491 -1.086232
  S    -5.697035  1.211721  3.095206
  S    -5.279985  5.323167  2.996114
