16  
    
  C     1.664864  4.449593  3.428620
  C     1.411266  7.938162  3.083365
  C     0.308441  4.222722  2.897093
  C     0.204117  7.503335  2.391568
  N     2.611850  4.329442  2.500260
  N     2.425870  8.295938  2.301087
  N     0.301641  3.974197  1.588095
  N     0.327610  7.453389  1.061011
  N    -0.049743  4.674356  5.405093
  N    -0.401684  7.715151  4.888843
  S    -1.032111  4.206530  4.092716
  S    -1.165401  7.229635  3.496755
  S     1.839081  4.065976  1.082280
  S     1.868333  7.948556  0.764682
  S     1.574426  4.872251  5.118342
  S     1.204882  8.223040  4.750405
