16  
    
  C    -1.817178  2.371407  2.273100
  C    -1.896424  6.267096  2.266871
  C    -3.042725  1.934400  1.640092
  C    -3.021065  5.557876  1.692607
  N    -0.814384  2.691938  1.432411
  N    -0.904504  6.495198  1.415547
  N    -2.870784  1.727765  0.338121
  N    -3.013142  5.439969  0.373662
  N    -3.569300  2.188638  4.138068
  N    -3.493022  6.006107  4.197345
  S    -4.379309  1.769359  2.725929
  S    -4.218806  5.289898  2.888671
  S    -1.344060  2.181065 -0.047984
  S    -1.453341  5.896862 -0.021261
  S    -1.955413  2.590778  4.004065
  S    -1.992030  6.716049  3.983542
