16  
    
  C     1.138733  4.495902  3.061115
  C     1.722431  8.393865  2.943487
  C     0.002614  3.914285  2.422307
  C     0.429845  8.154336  2.314997
  N     2.210207  4.605101  2.261388
  N     2.778719  8.319691  2.102218
  N     0.118095  3.934214  1.101635
  N     0.467866  7.987893  0.990885
  N    -0.655247  4.114075  4.845960
  N    -0.077332  8.358638  4.902978
  S    -1.402746  3.643384  3.367514
  S    -0.901405  8.035484  3.469867
  S     1.660351  4.413471  0.698383
  S     2.138106  7.995931  0.636749
  S     0.960700  4.415936  4.754648
  S     1.548146  8.697088  4.698503
