16  
    
  C    -1.121306  3.064052  2.412071
  C    -0.577662  6.563322  2.311905
  C    -2.365400  2.846984  1.767489
  C    -1.872693  6.321991  1.744740
  N    -0.028923  3.054824  1.620023
  N     0.376252  6.758476  1.376637
  N    -2.194701  2.436232  0.507651
  N    -1.921909  6.300203  0.414359
  N    -2.952176  3.178694  4.281146
  N    -2.386267  6.603011  4.251595
  S    -3.739220  3.035699  2.781129
  S    -3.201111  6.315874  2.862889
  S    -0.611087  2.688322  0.126192
  S    -0.327780  6.582621 -0.162945
  S    -1.259413  3.321869  4.146495
  S    -0.741233  6.906707  4.038347
