16  
    
  C    -0.222289  3.160234  2.672523
  C    -0.172736  6.986915  2.403869
  C    -1.416442  2.520097  2.050293
  C    -1.338859  6.426583  1.688257
  N     0.713711  3.281868  1.731098
  N     0.851427  7.311097  1.609098
  N    -1.442679  2.583390  0.716902
  N    -1.094912  6.229084  0.385081
  N    -1.907885  2.869062  4.589099
  N    -1.856541  6.438388  4.181756
  S    -2.683650  2.303980  3.174689
  S    -2.632934  5.974589  2.762745
  S     0.109446  2.926181  0.246241
  S     0.369029  6.934991  0.101770
  S    -0.344496  3.471616  4.375793
  S    -0.347425  7.115464  4.050425
