16  
    
  C     2.972649  5.195886  3.380508
  C     3.541483  9.076711  3.322709
  C     1.848442  4.667994  2.689096
  C     2.213777  8.670905  2.835583
  N     4.022411  5.537513  2.608835
  N     4.529947  9.114853  2.439996
  N     2.061092  4.432475  1.402395
  N     2.247368  8.300074  1.592294
  N     1.334049  4.748885  5.273235
  N     1.943101  9.017201  5.459669
  S     0.542226  4.311358  3.871405
  S     1.005081  8.585686  4.116685
  S     3.650563  4.910879  1.101468
  S     3.773831  8.702650  0.987629
  S     2.796023  5.550631  5.061129
  S     3.541442  9.303955  5.074549
