16  
    
  C     0.894190  3.906296  2.506590
  C     1.580476  8.217461  3.271187
  C    -0.372644  3.485457  1.870294
  C     0.277467  7.999879  2.618783
  N     1.824335  4.215663  1.610634
  N     2.559514  8.334075  2.357833
  N    -0.183847  3.126459  0.613676
  N     0.278570  7.950870  1.280568
  N    -0.855438  3.733978  4.375171
  N    -0.232750  8.142195  5.152447
  S    -1.592993  3.149468  3.020121
  S    -1.079517  7.974876  3.762433
  S     1.332178  3.653770  0.194107
  S     1.914870  8.208952  0.862834
  S     0.748586  4.180849  4.167457
  S     1.410435  8.181917  5.041094
