16  
    
  C     2.284540  4.373746  3.051603
  C     1.913947  8.370655  3.092891
  C     1.100398  4.040468  2.311152
  C     0.784613  7.667752  2.547114
  N     3.421053  4.421106  2.326739
  N     3.018621  8.333025  2.363181
  N     1.305805  3.713065  1.043836
  N     0.993759  7.152771  1.342088
  N     0.230780  4.409722  4.630444
  N     0.154154  8.631032  4.843195
  S    -0.359462  3.841743  3.262227
  S    -0.524919  7.576071  3.752187
  S     2.884258  3.967013  0.810662
  S     2.602433  7.574305  0.932377
  S     1.864999  4.622729  4.747283
  S     1.712321  9.053590  4.621051
