16  
    
  C     1.011222  4.085708  2.675521
  C     1.065779  7.670826  3.133911
  C    -0.194696  3.364904  2.193262
  C    -0.201178  7.229929  2.534007
  N     1.936637  4.158394  1.776025
  N     2.135395  7.654283  2.314597
  N    -0.102284  2.827195  0.991059
  N    -0.118729  7.045085  1.210570
  N    -0.723012  4.355374  4.547546
  N    -0.611573  7.487074  5.089480
  S    -1.454372  3.419781  3.382953
  S    -1.457970  7.169550  3.662217
  S     1.437279  3.300369  0.406357
  S     1.436247  7.301706  0.810363
  S     0.882955  4.774991  4.287856
  S     0.980053  8.003831  4.846489
