16  
    
  C    -5.794953  0.833586  1.604656
  C    -5.995610  4.592893  1.556019
  C    -6.939000  0.292344  0.914022
  C    -7.167078  4.233219  0.875294
  N    -4.818944  1.180147  0.739075
  N    -4.894799  4.751255  0.767556
  N    -6.823554  0.142220 -0.417789
  N    -7.077182  4.092459 -0.470916
  N    -7.642720  0.668575  3.443301
  N    -7.856212  4.179358  3.359142
  S    -8.273615 -0.033431  2.030645
  S    -8.598311  4.000829  1.875622
  S    -5.332048  0.743599 -0.764961
  S    -5.512164  4.431107 -0.767235
  S    -6.037614  1.015985  3.299201
  S    -6.277366  4.720865  3.299070
