16  
    
  C    -1.463208  2.699824  2.319066
  C    -1.429738  6.482586  2.250682
  C    -2.549375  1.965839  1.612916
  C    -2.690358  6.014100  1.644059
  N    -0.363380  2.820013  1.565430
  N    -0.528311  6.783652  1.337675
  N    -2.365363  1.805237  0.298279
  N    -2.564597  5.790797  0.353652
  N    -3.441203  2.455468  4.015964
  N    -3.100439  6.203366  4.235707
  S    -4.017592  1.751218  2.599548
  S    -3.965933  6.014284  2.845388
  S    -0.800467  2.324147  0.032451
  S    -0.985931  6.147655 -0.144583
  S    -1.882727  3.027507  3.928998
  S    -1.527402  6.737840  4.000574
