16  
    
  C     1.108339  4.449598  3.012467
  C     1.728224  8.471676  2.928248
  C     0.004479  3.911694  2.348327
  C     0.442985  8.135508  2.319518
  N     2.175781  4.665426  2.237020
  N     2.803726  8.374838  2.122006
  N     0.165478  3.914171  1.040973
  N     0.482551  7.956916  0.982063
  N    -0.730654  4.055389  4.821611
  N    -0.065649  8.366211  4.878457
  S    -1.393063  3.639775  3.326667
  S    -0.882739  8.032826  3.452655
  S     1.689466  4.384935  0.714093
  S     2.101912  8.057285  0.633520
  S     0.930745  4.392398  4.724227
  S     1.539538  8.757476  4.694058
