16  
    
  C    -0.288054  3.133068  2.590102
  C    -0.178492  7.004599  2.361862
  C    -1.499946  2.683184  2.076564
  C    -1.299819  6.307622  1.760753
  N     0.690855  3.292975  1.728967
  N     0.715367  7.379622  1.463819
  N    -1.440309  2.431197  0.773663
  N    -1.128582  6.062710  0.468177
  N    -1.857355  2.915397  4.593554
  N    -1.969428  6.630601  4.258680
  S    -2.777521  2.429377  3.295571
  S    -2.603849  5.935657  2.875004
  S     0.051732  3.001095  0.260826
  S     0.334507  6.721947  0.012979
  S    -0.325242  3.313419  4.283076
  S    -0.451225  7.238535  4.118088
