16  
    
  C     2.981994  5.281711  3.656881
  C     2.942136  8.688215  3.559040
  C     1.734006  4.980149  2.973477
  C     1.778243  8.377712  2.779183
  N     4.027283  5.273547  2.844446
  N     4.089341  8.672961  2.858098
  N     1.811432  4.897899  1.656818
  N     2.020733  8.281849  1.472875
  N     1.093019  4.898697  5.428000
  N     1.037732  8.758024  5.161759
  S     0.314586  4.982454  3.931265
  S     0.326684  8.163564  3.791489
  S     3.401033  4.973070  1.292848
  S     3.656889  8.467397  1.224102
  S     2.768567  5.249865  5.369904
  S     2.676170  8.939803  5.203791
