16  
    
  C    -5.380771  0.993911  1.569742
  C    -5.153710  4.671025  1.499384
  C    -6.668740  0.726796  0.953831
  C    -6.442932  4.238073  0.964122
  N    -4.313284  1.113009  0.762387
  N    -4.157030  4.591071  0.596962
  N    -6.661435  0.665498 -0.378622
  N    -6.489085  3.962114 -0.348268
  N    -7.142605  1.065078  3.428969
  N    -6.798164  4.505599  3.465676
  S    -7.982765  0.972033  2.060803
  S    -7.733780  4.329400  2.111989
  S    -5.003579  0.912362 -0.782334
  S    -4.948227  4.185465 -0.834561
  S    -5.557046  1.356513  3.277539
  S    -5.207689  5.109599  3.221010
