16  
    
  C     2.851353  5.454362  3.877068
  C     2.423290  8.592952  3.358790
  C     1.756234  4.666111  3.384686
  C     1.293330  8.025884  2.655755
  N     3.893535  5.539765  3.040812
  N     3.477970  8.692585  2.571269
  N     1.817654  4.325234  2.092486
  N     1.437150  7.754992  1.368377
  N     1.179578  5.375329  5.813249
  N     0.495020  8.447851  5.060810
  S     0.409520  4.792469  4.398909
  S    -0.111449  7.803553  3.667303
  S     3.370378  4.746728  1.657711
  S     2.959794  8.252277  0.991524
  S     2.818428  5.739143  5.544977
  S     2.076320  8.826257  5.043098
