16  
    
  C     2.038421  4.497471  3.310517
  C     1.606340  7.677955  3.066445
  C     0.803225  4.136179  2.669435
  C     0.385631  7.420528  2.351085
  N     2.967088  4.982000  2.461431
  N     2.641902  7.938801  2.315907
  N     0.919152  3.909981  1.327770
  N     0.593842  7.451824  1.051526
  N     0.347669  4.016557  5.167976
  N    -0.207218  7.554295  4.820847
  S    -0.467815  3.682279  3.827707
  S    -0.996920  7.371043  3.389133
  S     2.381444  4.550477  0.936203
  S     2.164883  7.720341  0.724630
  S     1.899485  4.564619  5.053468
  S     1.408867  7.733032  4.763552
