16  
    
  C    -0.848515  2.998171  2.436411
  C    -0.745441  6.604938  2.443373
  C    -2.122874  2.750624  1.846952
  C    -1.907430  6.168857  1.727172
  N     0.164411  3.236574  1.585843
  N     0.355392  6.708632  1.674442
  N    -2.042514  2.605148  0.516241
  N    -1.729109  5.842398  0.433583
  N    -2.577098  2.903051  4.425477
  N    -2.547949  6.324743  4.170041
  S    -3.404719  2.646070  2.986455
  S    -3.273237  5.985867  2.689442
  S    -0.445420  2.835348  0.092672
  S    -0.179616  6.173721  0.193906
  S    -0.949152  3.370810  4.154690
  S    -0.933556  6.634514  4.150064
