16  
    
  C     3.096018  5.024922  3.439829
  C     3.246150  8.700316  3.742706
  C     1.835817  4.674887  2.846927
  C     1.858866  8.566340  3.222230
  N     4.141331  5.090837  2.617309
  N     4.180806  8.642695  2.811750
  N     1.945562  4.328022  1.572105
  N     1.799041  8.267562  1.921313
  N     1.423382  5.002991  5.420366
  N     1.814450  9.385986  5.710946
  S     0.530473  4.628575  4.091042
  S     0.763165  9.078477  4.523682
  S     3.562514  4.739221  1.092322
  S     3.468855  8.186527  1.385754
  S     3.042225  5.331553  5.155862
  S     3.418665  9.310844  5.374720
