16  
    
  C    -3.679224  1.829465  2.079988
  C    -3.449521  5.309777  2.008439
  C    -4.729431  1.109018  1.322856
  C    -4.694285  4.822681  1.476664
  N    -2.694486  2.148575  1.283707
  N    -2.435156  5.411275  1.152803
  N    -4.380640  0.733531  0.106919
  N    -4.647811  4.572043  0.173984
  N    -5.614446  1.513319  3.667385
  N    -5.129081  5.309342  4.035978
  S    -6.119826  0.635441  2.231001
  S    -5.953320  4.934917  2.683012
  S    -2.941555  1.502477 -0.218393
  S    -3.101851  4.806879 -0.286290
  S    -4.020131  2.171636  3.711081
  S    -3.495821  5.744974  3.701975
