16  
    
  C     0.058599  3.538646  2.335593
  C     0.320321  7.588433  2.803622
  C    -1.222799  3.114164  1.700716
  C    -0.811753  6.918092  2.213184
  N     1.115245  3.631353  1.506661
  N     1.372961  7.775099  2.013798
  N    -1.161061  3.298907  0.344301
  N    -0.573690  6.449566  0.983639
  N    -1.633262  3.493885  4.298520
  N    -1.487838  7.229004  4.757303
  S    -2.463450  3.049678  2.903674
  S    -2.156057  6.594911  3.359078
  S     0.435020  3.441585 -0.024600
  S     0.913808  6.946003  0.523620
  S     0.004863  3.781759  4.061289
  S     0.009739  7.940178  4.535102
