16  
    
  C     2.890337  5.364864  3.530730
  C     2.927957  8.713554  3.431566
  C     1.782079  4.773109  2.848666
  C     1.836983  8.099858  2.692921
  N     3.971742  5.459320  2.760609
  N     3.854032  9.150956  2.659544
  N     1.882449  4.747350  1.518333
  N     1.961843  8.131707  1.364538
  N     1.054111  5.067751  5.235924
  N     1.055564  8.351376  5.203041
  S     0.431259  4.476026  3.818352
  S     0.454094  7.906819  3.713022
  S     3.369800  5.277711  1.199079
  S     3.467645  8.775492  1.069122
  S     2.724161  5.340018  5.260138
  S     2.652526  8.937447  5.119729
