16  
    
  C    -2.567402  2.523533  2.367314
  C    -2.715959  5.831162  2.057402
  C    -3.692503  1.843664  1.721548
  C    -3.870959  5.391741  1.310745
  N    -1.666328  2.925887  1.470296
  N    -1.703161  6.126601  1.276305
  N    -3.623118  1.774248  0.401107
  N    -3.781004  5.443832  0.022281
  N    -4.390261  2.020459  4.198589
  N    -4.544280  5.523164  3.782346
  S    -5.066313  1.408012  2.781123
  S    -5.158925  4.934773  2.338536
  S    -2.236271  2.591360 -0.032603
  S    -2.202881  5.809447 -0.297734
  S    -2.825063  2.557982  4.079135
  S    -2.875803  5.858825  3.769594
