16  
    
  C    -1.837725  2.322697  2.653224
  C    -1.774351  5.870821  2.348971
  C    -3.046287  1.983206  1.941344
  C    -2.982832  5.635096  1.606950
  N    -0.904943  2.796620  1.818301
  N    -0.682903  6.008340  1.584008
  N    -2.932336  1.837136  0.626525
  N    -2.865151  5.780117  0.297653
  N    -3.735919  2.080502  4.395901
  N    -3.492254  5.622657  4.080125
  S    -4.514689  1.901980  2.928606
  S    -4.329420  5.374728  2.630890
  S    -1.393475  2.398802  0.296358
  S    -1.201545  5.858522  0.002458
  S    -2.084455  2.409641  4.349345
  S    -1.833192  5.813326  4.088337
