16  
    
  C    -0.237219  3.324180  2.596305
  C    -0.068982  6.944085  2.408766
  C    -1.394821  2.677942  2.019089
  C    -1.201274  6.483861  1.708557
  N     0.826475  3.426658  1.806030
  N     0.941276  7.301512  1.641093
  N    -1.257118  2.398388  0.720329
  N    -1.214062  6.573021  0.383390
  N    -1.951658  2.860929  4.544132
  N    -1.915134  6.398267  4.254658
  S    -2.657810  2.234968  3.162697
  S    -2.563480  5.998105  2.775212
  S     0.247759  2.942910  0.292733
  S     0.356869  7.035920  0.016072
  S    -0.405079  3.472926  4.297022
  S    -0.338222  6.997036  4.205908
