16  
    
  C     3.186996  5.190557  3.483833
  C     3.329631  8.930224  3.691862
  C     1.910950  4.782687  2.886853
  C     2.077432  8.768897  3.060232
  N     4.244993  4.974378  2.670578
  N     4.385271  8.738697  2.843347
  N     2.009600  4.545169  1.581691
  N     2.161083  8.543220  1.717143
  N     1.370549  5.107092  5.390495
  N     1.798407  9.058737  5.680295
  S     0.582069  4.717604  4.012008
  S     0.845841  9.143379  4.324240
  S     3.589759  4.653649  1.143782
  S     3.742865  8.334068  1.419258
  S     3.009314  5.315301  5.244891
  S     3.425398  9.244522  5.406964
