16  
    
  C    -5.380508  1.244010  1.420737
  C    -5.354541  4.554379  1.589761
  C    -6.631439  0.902103  0.806490
  C    -6.638919  4.204230  1.101202
  N    -4.315359  1.240728  0.596223
  N    -4.438357  4.739001  0.636432
  N    -6.510011  0.655784 -0.511740
  N    -6.666818  3.950113 -0.212232
  N    -7.131448  1.071809  3.393300
  N    -6.899253  4.801699  3.529562
  S    -7.883530  0.735878  1.944059
  S    -7.831235  4.068435  2.327251
  S    -4.906536  0.732558 -0.851818
  S    -5.143657  4.336221 -0.785201
  S    -5.454857  1.333819  3.147063
  S    -5.234203  4.717944  3.297744
