16  
    
  C     2.929389  5.285534  3.630606
  C     2.885011  8.726327  3.478510
  C     1.700077  5.039498  2.887368
  C     1.763210  8.335034  2.669782
  N     3.992198  5.342636  2.857413
  N     4.005072  8.981214  2.771961
  N     1.857671  4.793701  1.591219
  N     1.997919  8.173805  1.344057
  N     1.155940  4.714959  5.348254
  N     1.017031  8.710295  5.230240
  S     0.347550  4.862920  3.931311
  S     0.376373  8.098250  3.779962
  S     3.484480  5.147563  1.313912
  S     3.687728  8.506860  1.275519
  S     2.692466  5.305183  5.362956
  S     2.680776  8.825181  5.145066
