16  
    
  C    -2.413519  2.250494  2.123947
  C    -2.607726  5.670020  2.122992
  C    -3.645174  2.014921  1.482221
  C    -3.811776  5.205172  1.489443
  N    -1.399470  2.274531  1.276629
  N    -1.612895  5.810612  1.200387
  N    -3.654172  1.859092  0.163119
  N    -3.771975  5.066386  0.166894
  N    -4.167669  2.019568  4.049788
  N    -4.368014  5.320480  4.003480
  S    -4.978770  1.889139  2.611143
  S    -5.167365  4.966486  2.555763
  S    -2.010153  1.953549 -0.230372
  S    -2.246344  5.644037 -0.293819
  S    -2.546131  2.335639  3.899347
  S    -2.781568  5.712508  3.841804
