16  
    
  C    -3.308606  1.935232  2.031923
  C    -3.120149  5.448190  2.077831
  C    -4.493676  1.469632  1.384652
  C    -4.252328  4.826976  1.495269
  N    -2.339315  2.142541  1.151542
  N    -2.104737  5.835580  1.312891
  N    -4.414618  1.302019  0.053966
  N    -4.030503  4.633925  0.184824
  N    -5.011125  1.551091  3.959113
  N    -4.893001  5.173121  3.990023
  S    -5.807013  1.126756  2.528958
  S    -5.563937  4.490226  2.576522
  S    -2.862240  1.813854 -0.397481
  S    -2.582705  5.258654 -0.217791
  S    -3.321067  1.871326  3.809883
  S    -3.393100  5.824234  3.733755
