16  
    
  C     2.956375  5.210398  3.975502
  C     2.614517  8.676679  3.128749
  C     1.676016  4.987766  3.341617
  C     1.342364  8.306855  2.613771
  N     3.961658  5.355355  3.113582
  N     3.588898  8.632452  2.223232
  N     1.784028  4.677447  2.053521
  N     1.323598  7.859674  1.365727
  N     1.238783  5.820110  5.674324
  N     0.857741  8.473079  5.128576
  S     0.385419  5.078350  4.467462
  S     0.064827  8.170438  3.684598
  S     3.405804  4.850658  1.678442
  S     2.865365  8.121510  0.775759
  S     2.852183  5.918095  5.506360
  S     2.468232  8.851626  4.893971
