16  
    
  C     1.994729  4.370787  2.998926
  C     2.033063  7.865121  3.165312
  C     0.761644  3.988470  2.418553
  C     0.827168  7.525392  2.393953
  N     3.060291  4.344651  2.188887
  N     3.142189  8.050497  2.456366
  N     0.814003  3.734176  1.116729
  N     1.019272  7.486545  1.093956
  N     0.247766  4.286688  4.972847
  N     0.105852  7.894211  4.923229
  S    -0.507485  3.945484  3.534255
  S    -0.557956  7.378358  3.443920
  S     2.447094  3.956346  0.722334
  S     2.693774  7.773641  0.870998
  S     1.902458  4.809235  4.737673
  S     1.733292  8.260242  4.834713
