16  
    
  C    -5.985635  0.762729  1.398568
  C    -5.954551  4.232722  1.546714
  C    -7.203038  0.682454  0.629228
  C    -7.236808  3.813791  0.880992
  N    -4.950182  0.922457  0.596602
  N    -5.096059  4.727611  0.696598
  N    -7.063427  0.593517 -0.681049
  N    -7.154024  3.858513 -0.429909
  N    -7.820213  0.282916  3.173329
  N    -7.637684  3.836236  3.458337
  S    -8.587294  0.343545  1.685135
  S    -8.381532  3.407151  2.059091
  S    -5.410104  0.814800 -1.027423
  S    -5.655551  4.518244 -0.824497
  S    -6.197393  0.648049  3.095165
  S    -6.006124  4.186272  3.227991
