16  
    
  C     0.529135  3.717501  3.104785
  C     1.086728  7.517448  2.642771
  C    -0.535689  3.230440  2.232176
  C    -0.047722  6.984817  1.984190
  N     1.587235  4.165402  2.441058
  N     2.086793  7.943149  1.847893
  N    -0.134967  3.001487  0.969670
  N    -0.027654  6.942565  0.636384
  N    -1.366826  3.086908  4.638657
  N    -0.718437  6.940292  4.546014
  S    -1.880864  2.527028  3.121140
  S    -1.404385  6.549955  3.076352
  S     1.319842  3.861889  0.829734
  S     1.489031  7.595166  0.297750
  S     0.093815  3.803985  4.732932
  S     0.837367  7.574558  4.441586
