16  
    
  C     3.000080  5.397881  3.941846
  C     2.380023  8.583463  3.221002
  C     1.743594  5.005181  3.367300
  C     1.204572  8.077029  2.576432
  N     3.974536  5.519464  2.999501
  N     3.419943  8.758362  2.451776
  N     1.877550  4.477157  2.146862
  N     1.425201  7.716641  1.308958
  N     1.145109  5.624990  5.710779
  N     0.687796  8.271246  5.141367
  S     0.407129  4.838899  4.462617
  S    -0.183982  8.026723  3.719145
  S     3.415376  4.770983  1.618553
  S     3.041093  8.194001  0.986479
  S     2.751644  5.836433  5.644780
  S     2.321370  8.801094  4.885678
