16  
    
  C    -2.632304  2.127490  2.019935
  C    -2.564141  5.846326  2.127135
  C    -3.854444  1.873846  1.342787
  C    -3.727732  5.379954  1.406636
  N    -1.567283  2.192181  1.224841
  N    -1.440248  5.813741  1.370911
  N    -3.775100  1.812837  0.004071
  N    -3.563936  5.042738  0.117932
  N    -4.477935  1.965653  3.806082
  N    -4.438458  5.807553  3.832599
  S    -5.244015  1.880925  2.352417
  S    -5.180163  5.287559  2.388355
  S    -2.220278  2.100237 -0.348341
  S    -1.962652  5.382836 -0.169914
  S    -2.891937  2.451502  3.734537
  S    -2.831876  6.165381  3.788713
