16  
    
  C     3.275028  4.943949  3.491387
  C     3.451918  8.968067  3.831370
  C     2.030716  4.722652  2.795300
  C     2.270026  8.803229  3.056999
  N     4.294538  5.020944  2.604718
  N     4.528581  9.122183  3.009599
  N     2.102507  4.485972  1.486259
  N     2.373208  8.745209  1.695388
  N     1.326962  5.163099  5.288527
  N     1.480845  9.244856  5.463151
  S     0.630251  4.735784  3.861508
  S     0.832418  8.832491  4.002209
  S     3.666044  4.788575  1.103477
  S     4.030896  8.874742  1.423140
  S     2.948668  5.215090  5.198200
  S     3.109077  9.217473  5.520389
