16  
    
  C     1.271283  4.534651  3.209005
  C     1.615967  7.959082  3.107078
  C    -0.031975  4.260852  2.701494
  C     0.334773  7.766816  2.412227
  N     2.174734  4.716912  2.254875
  N     2.665278  7.980886  2.267713
  N    -0.019948  3.959936  1.392065
  N     0.389827  7.601653  1.080563
  N    -0.194636  4.181669  5.239315
  N    -0.282104  8.134532  4.906194
  S    -1.269780  3.913957  3.962225
  S    -1.052069  8.215351  3.456568
  S     1.460460  4.396011  0.851367
  S     2.004541  7.694180  0.737932
  S     1.357237  4.660094  4.916768
  S     1.379673  8.176867  4.863086
