16  
    
  C    -3.656995  1.788259  2.082754
  C    -3.448742  5.286780  2.027388
  C    -4.720167  1.115330  1.329987
  C    -4.674668  4.849531  1.463337
  N    -2.630006  2.139826  1.318678
  N    -2.426351  5.388578  1.140689
  N    -4.394656  0.727919  0.099494
  N    -4.642651  4.572056  0.158600
  N    -5.613896  1.511260  3.677725
  N    -5.112103  5.323897  4.046413
  S    -6.143264  0.667261  2.239564
  S    -5.941681  4.932009  2.675311
  S    -2.932108  1.458164 -0.209962
  S    -3.087008  4.826899 -0.300181
  S    -3.995794  2.141411  3.723306
  S    -3.476444  5.753571  3.755654
