16  
    
  C    -0.408821  3.464785  2.936473
  C    -0.976222  6.721091  2.716348
  C    -1.572139  2.882885  2.315843
  C    -2.026223  6.291965  1.892694
  N     0.635057  3.655559  2.102228
  N     0.154080  7.090014  2.095370
  N    -1.411621  2.665046  1.023746
  N    -1.714088  6.150572  0.605124
  N    -2.250215  3.358467  4.697832
  N    -2.953979  6.385566  4.334039
  S    -2.977106  2.829969  3.335410
  S    -3.496460  6.041723  2.812252
  S     0.116993  3.095107  0.620445
  S    -0.063047  6.606731  0.505584
  S    -0.641728  3.746033  4.659008
  S    -1.396377  6.982835  4.405829
