16  
    
  C    -1.964545  2.245076  2.047245
  C    -2.043917  5.857622  2.192880
  C    -3.228226  1.983296  1.340267
  C    -3.335725  5.592369  1.534464
  N    -0.976065  2.379047  1.175961
  N    -0.991985  5.955270  1.332589
  N    -3.146015  1.769483  0.031678
  N    -3.236866  5.638356  0.212152
  N    -3.791598  2.387212  3.814411
  N    -3.738593  5.726950  4.098895
  S    -4.558114  1.802016  2.473953
  S    -4.627018  5.511040  2.723036
  S    -1.561213  2.136658 -0.348469
  S    -1.617954  5.669290 -0.218757
  S    -2.143027  2.481132  3.755255
  S    -2.122497  6.078849  3.872711
