16  
    
  C    -3.378579  1.805941  1.604518
  C    -3.751701  5.561020  1.690634
  C    -4.583920  1.190329  0.960358
  C    -4.920639  5.027519  0.997326
  N    -2.317839  1.868957  0.806141
  N    -2.738025  5.729443  0.854431
  N    -4.431808  0.895879 -0.313236
  N    -4.805503  4.905415 -0.324133
  N    -5.096947  1.449313  3.572622
  N    -5.531893  5.222120  3.535921
  S    -5.864486  0.845646  2.173200
  S    -6.225105  4.813572  2.055328
  S    -2.844479  1.242542 -0.737389
  S    -3.294292  5.460882 -0.640764
  S    -3.561582  2.129601  3.313402
  S    -3.864644  5.594522  3.462025
