16  
    
  C    -1.755021  2.359240  1.941044
  C    -1.699353  6.283821  2.148625
  C    -2.953664  2.065033  1.265542
  C    -2.895532  5.829718  1.552065
  N    -0.714093  2.473406  1.129906
  N    -0.639776  6.375644  1.379504
  N    -2.855633  1.809130 -0.041330
  N    -2.763764  5.670002  0.230190
  N    -3.555973  2.175992  3.796515
  N    -3.628029  6.200646  3.850841
  S    -4.330097  1.912902  2.308463
  S    -4.261072  5.579033  2.442020
  S    -1.260178  2.194261 -0.392380
  S    -1.193025  5.919979 -0.189929
  S    -1.880405  2.365703  3.692794
  S    -2.021629  6.733208  3.778813
