16  
    
  C     0.572928  3.552483  2.713705
  C     0.629248  7.630441  2.703368
  C    -0.688735  3.324314  2.080694
  C    -0.565362  7.071308  2.042069
  N     1.562491  3.688008  1.845080
  N     1.514792  7.999404  1.815327
  N    -0.675356  3.382472  0.734669
  N    -0.395354  6.953455  0.718185
  N    -1.051170  3.250874  4.662901
  N    -0.969191  7.138148  4.642068
  S    -1.883309  2.973055  3.212473
  S    -1.746638  6.657138  3.258286
  S     0.877625  3.646649  0.368806
  S     1.050013  7.667229  0.276076
  S     0.528648  3.524754  4.509838
  S     0.556801  7.734719  4.387748
