16  
    
  C    -0.232651  3.136008  2.654049
  C    -0.176472  7.002413  2.385233
  C    -1.415937  2.503808  2.040628
  C    -1.356411  6.368606  1.670661
  N     0.725472  3.288526  1.740781
  N     0.852845  7.345842  1.625291
  N    -1.466917  2.589879  0.712397
  N    -1.107530  6.203671  0.376644
  N    -1.923855  2.864393  4.600066
  N    -1.888273  6.450164  4.199214
  S    -2.703510  2.321420  3.192834
  S    -2.629037  5.976931  2.785996
  S     0.094475  2.930563  0.241914
  S     0.376306  6.900153  0.078688
  S    -0.321560  3.461981  4.370757
  S    -0.357863  7.133562  4.048679
