16  
    
  C     3.066271  5.223414  3.431223
  C     3.361260  9.055362  3.462222
  C     1.939190  4.631900  2.731138
  C     2.090912  8.712079  2.867420
  N     4.101496  5.523068  2.623625
  N     4.289951  9.165925  2.531096
  N     2.159527  4.264593  1.500985
  N     2.069129  8.454171  1.593056
  N     1.215338  4.837801  5.158376
  N     1.735216  8.850944  5.494850
  S     0.615678  4.222586  3.709755
  S     0.845139  8.613237  4.102346
  S     3.574460  4.926005  1.109465
  S     3.633551  8.608730  1.117931
  S     2.742416  5.467762  5.065899
  S     3.363316  9.257716  5.200661
