16  
    
  C    -1.697440  2.434193  2.397758
  C    -1.734451  6.237458  2.429171
  C    -2.924701  2.102898  1.711435
  C    -2.872407  5.689594  1.777324
  N    -0.679644  2.787141  1.644309
  N    -0.667875  6.362185  1.631492
  N    -2.735773  1.905942  0.427812
  N    -2.696390  5.490442  0.487598
  N    -3.562533  2.339009  4.188416
  N    -3.490065  5.724057  4.174545
  S    -4.287297  2.207631  2.723646
  S    -4.247414  5.394380  2.753942
  S    -1.126027  2.337891  0.093048
  S    -1.195188  5.923149  0.143625
  S    -1.943676  2.769083  4.092348
  S    -1.926473  6.271080  4.105109
