16  
    
  C    -1.182539  3.251937  2.100336
  C    -1.093963  7.127742  2.633602
  C    -2.461352  2.749746  1.548594
  C    -2.332122  6.779364  1.952102
  N    -0.294119  3.683363  1.206765
  N    -0.067751  7.164341  1.767527
  N    -2.415860  2.583308  0.240268
  N    -2.181364  6.598549  0.626658
  N    -2.795125  2.910417  4.080164
  N    -2.824099  6.628978  4.548138
  S    -3.559206  2.270320  2.759695
  S    -3.674099  6.712377  3.124213
  S    -0.961967  3.268693 -0.279167
  S    -0.625749  6.987448  0.227122
  S    -1.310905  3.610100  3.851380
  S    -1.143715  6.946993  4.360495
