16  
    
  C    -4.191939  1.413282  1.876049
  C    -4.085674  4.974710  2.035047
  C    -5.424929  1.200771  1.215070
  C    -5.395564  4.707054  1.429314
  N    -3.105751  1.450619  1.121518
  N    -3.089225  5.049813  1.157817
  N    -5.324293  1.062650 -0.078155
  N    -5.317065  4.436511  0.133363
  N    -5.993928  1.487011  3.608597
  N    -5.779567  5.335490  3.866125
  S    -6.852864  1.195681  2.196690
  S    -6.691476  4.989987  2.522371
  S    -3.664361  1.190105 -0.384318
  S    -3.733938  4.630528 -0.288251
  S    -4.365969  1.512191  3.578354
  S    -4.134542  5.543173  3.594745
