16  
    
  C    -1.485918  2.999569  2.057799
  C    -0.985333  7.062979  2.331492
  C    -2.592725  2.347942  1.329602
  C    -2.279841  6.643760  1.800824
  N    -0.595989  3.444207  1.171190
  N     0.035829  7.106706  1.415615
  N    -2.393151  2.125095  0.019613
  N    -2.285633  6.335341  0.495858
  N    -3.265911  2.611839  3.798007
  N    -2.673958  6.647110  4.362805
  S    -3.881455  1.893628  2.440218
  S    -3.589231  6.688056  2.957323
  S    -0.942660  2.855157 -0.330065
  S    -0.780445  6.718727 -0.042392
  S    -1.828329  3.416734  3.699176
  S    -1.062202  7.114714  4.111353
