16  
    
  C    -2.740362  2.656098  2.288189
  C    -2.692177  6.218232  1.998175
  C    -3.836632  1.928350  1.721579
  C    -3.835639  5.673962  1.234148
  N    -1.728569  2.943480  1.467970
  N    -1.738542  6.650678  1.198630
  N    -3.725078  1.746229  0.432221
  N    -3.640054  5.590502 -0.058665
  N    -4.402492  2.155281  4.236004
  N    -4.450621  5.522726  3.673526
  S    -5.066015  1.442511  2.884237
  S    -5.232220  5.276451  2.207836
  S    -2.273174  2.418827 -0.028131
  S    -2.045414  6.147727 -0.312444
  S    -2.890821  2.828826  4.035583
  S    -2.972937  6.310696  3.662480
