16  
    
  C    -5.428948  1.080951  1.299947
  C    -5.366847  4.750764  1.567623
  C    -6.587650  0.585981  0.563419
  C    -6.590882  4.338859  0.883521
  N    -4.431025  1.479242  0.496511
  N    -4.320306  5.149332  0.783086
  N    -6.472669  0.489187 -0.775152
  N    -6.467088  4.302037 -0.462251
  N    -7.170413  0.507040  3.141605
  N    -7.266781  4.557781  3.357760
  S    -7.865690  0.096796  1.641405
  S    -7.958796  4.100819  1.894992
  S    -4.895669  1.068703 -1.066608
  S    -4.945394  4.848358 -0.743931
  S    -5.595252  1.213148  3.043166
  S    -5.681880  5.031768  3.227372
