16  
    
  C    -5.375878  1.144765  1.299893
  C    -5.470394  4.779623  1.583744
  C    -6.555283  0.610317  0.660038
  C    -6.758941  4.487269  0.928888
  N    -4.320081  1.472519  0.514552
  N    -4.411316  4.948506  0.737456
  N    -6.435426  0.409710 -0.655138
  N    -6.659356  4.310558 -0.422000
  N    -7.157244  0.871790  3.194578
  N    -7.222129  4.565637  3.539604
  S    -7.819658  0.093483  1.771871
  S    -8.030777  4.163821  2.127328
  S    -4.875517  0.980195 -1.030205
  S    -5.064445  4.586904 -0.771237
  S    -5.504491  1.229964  3.050480
  S    -5.595880  4.860867  3.335605
