16  
    
  C     3.461997  5.267722  3.532991
  C     3.567865  9.204864  3.483151
  C     2.195585  5.021835  2.936911
  C     2.436210  8.569173  2.881495
  N     4.440456  5.602547  2.645197
  N     4.622353  9.452955  2.635010
  N     2.236181  4.838955  1.628981
  N     2.523122  8.358601  1.570592
  N     1.686172  4.888599  5.506690
  N     1.825911  8.693955  5.398423
  S     0.949858  4.596660  4.024927
  S     1.199330  8.116889  3.955412
  S     3.809089  5.174771  1.159092
  S     4.021891  9.061723  1.100197
  S     3.249566  5.359258  5.326501
  S     3.377467  9.407757  5.210028
