16  
    
  C    -2.561061  2.376931  2.229195
  C    -2.688740  5.691706  2.060738
  C    -3.783731  1.885954  1.571222
  C    -3.865350  5.201422  1.433708
  N    -1.538423  2.671572  1.439729
  N    -1.690571  6.059474  1.243460
  N    -3.622928  1.838164  0.264128
  N    -3.752471  5.208408  0.133520
  N    -4.254512  1.884268  4.098601
  N    -4.416198  5.325589  3.957473
  S    -5.070723  1.658969  2.658016
  S    -5.253988  4.921389  2.523215
  S    -2.046777  2.334088 -0.064477
  S    -2.185881  5.683736 -0.278222
  S    -2.655596  2.401788  3.967747
  S    -2.809218  5.719516  3.771052
