16  
    
  C    -3.183788  2.095997  1.719630
  C    -3.087876  5.893039  1.965919
  C    -4.229112  1.427865  0.984203
  C    -4.411595  5.574292  1.457735
  N    -2.102923  2.374468  1.018045
  N    -2.104775  6.034515  1.068439
  N    -3.999616  1.284031 -0.316365
  N    -4.384963  5.371177  0.170520
  N    -5.026646  1.572933  3.420634
  N    -4.635591  5.378030  4.064145
  S    -5.613177  0.986656  1.955222
  S    -5.636680  5.257620  2.721934
  S    -2.515164  1.883408 -0.533222
  S    -2.819507  5.783000 -0.381740
  S    -3.422911  2.231529  3.440812
  S    -3.093851  5.941011  3.696034
