16  
    
  C    -2.626381  2.446305  2.303887
  C    -2.730130  6.564073  1.965790
  C    -3.837838  1.864008  1.696826
  C    -3.783897  5.854107  1.247222
  N    -1.746541  2.914136  1.424843
  N    -1.634049  6.708616  1.217008
  N    -3.706237  1.663049  0.379944
  N    -3.482526  5.487487 -0.061680
  N    -4.387409  2.240175  4.131644
  N    -4.517929  5.832551  3.730415
  S    -5.117049  1.650984  2.786035
  S    -5.115861  5.361742  2.236919
  S    -2.291894  2.374637 -0.100925
  S    -1.996701  6.163537 -0.316612
  S    -2.851858  2.889884  3.981979
  S    -2.998335  6.408172  3.710798
