16  
    
  C     0.522932  3.730537  2.925414
  C     0.501992  7.504728  2.914735
  C    -0.822481  3.470859  2.381515
  C    -0.685402  7.146334  2.207355
  N     1.493274  3.811659  2.012401
  N     1.609528  7.616684  2.150200
  N    -0.833424  3.685177  1.056571
  N    -0.467303  6.833970  0.927646
  N    -1.072426  3.441950  4.945080
  N    -1.359169  7.306802  4.632518
  S    -2.071320  3.331797  3.577889
  S    -2.096211  7.052339  3.140362
  S     0.683404  3.866759  0.551527
  S     1.086270  7.196710  0.601574
  S     0.511305  3.515317  4.710328
  S     0.253135  7.815461  4.623560
