16  
    
  C    -0.021550  3.565888  2.565962
  C     0.264822  7.523114  2.706099
  C    -1.162450  3.031015  1.934442
  C    -0.924583  7.070490  2.042767
  N     0.987902  3.831960  1.741114
  N     1.289759  7.709097  1.921345
  N    -0.981615  2.579846  0.654807
  N    -0.803723  6.994377  0.736784
  N    -1.770213  3.445707  4.422528
  N    -1.399024  7.211363  4.513374
  S    -2.426869  2.663651  3.078941
  S    -2.290669  6.960196  3.112436
  S     0.542549  3.181935  0.270799
  S     0.861459  7.254908  0.397446
  S    -0.249282  4.090789  4.245867
  S     0.222987  7.518587  4.349396
