16  
    
  C    -5.623537  0.808436  1.526832
  C    -5.623067  4.683475  1.235589
  C    -6.835335  0.366790  0.854510
  C    -6.815327  4.159405  0.727201
  N    -4.564302  0.864370  0.723669
  N    -4.631884  4.907422  0.353890
  N    -6.645783  0.308793 -0.476846
  N    -6.820525  4.093153 -0.605352
  N    -7.409915  0.506520  3.314652
  N    -7.357702  4.377589  3.244889
  S    -8.213069  0.305447  1.878949
  S    -8.169528  4.031575  1.853666
  S    -5.058145  0.573757 -0.817567
  S    -5.346625  4.601231 -1.142329
  S    -5.892530  1.117725  3.310593
  S    -5.821512  4.929885  2.985716
