16  
    
  C    -0.372722  3.205303  2.588276
  C    -0.256699  7.085613  2.377907
  C    -1.613871  2.870583  1.969728
  C    -1.502779  6.638470  1.661097
  N     0.699139  3.320119  1.789324
  N     0.839929  7.231331  1.633762
  N    -1.431362  2.472522  0.711319
  N    -1.320712  6.556635  0.360400
  N    -2.123388  3.232917  4.509045
  N    -2.094803  6.766495  4.201608
  S    -2.870600  2.511206  3.138080
  S    -2.850575  6.588208  2.736820
  S     0.121597  2.908454  0.280140
  S     0.299790  6.800147  0.046468
  S    -0.517622  3.690436  4.263933
  S    -0.487308  7.216441  4.095298
