16  
    
  C    -3.419772  1.761890  1.616541
  C    -3.933653  5.277516  1.609470
  C    -4.571424  1.163464  0.992245
  C    -5.159105  4.871781  1.033715
  N    -2.490277  2.009195  0.717714
  N    -2.940695  5.407640  0.759371
  N    -4.549962  1.014197 -0.333296
  N    -5.123211  4.583983 -0.247948
  N    -5.118901  1.572767  3.477933
  N    -5.564181  5.113241  3.529646
  S    -5.917999  0.956607  2.171644
  S    -6.302787  4.546712  2.212830
  S    -3.037710  1.627169 -0.789999
  S    -3.555252  5.032018 -0.729440
  S    -3.612777  2.169337  3.281740
  S    -3.969226  5.578291  3.331129
