16  
    
  C    -4.259443  1.633411  1.970467
  C    -4.507140  5.243348  1.691780
  C    -5.436804  1.086581  1.304641
  C    -5.729322  4.785647  1.135472
  N    -3.179538  1.756517  1.176309
  N    -3.483241  5.306673  0.821983
  N    -5.211085  0.639110  0.058090
  N    -5.684193  4.535615 -0.178407
  N    -6.209041  1.590777  3.758275
  N    -6.204833  5.244559  3.644950
  S    -6.827026  0.998859  2.324532
  S    -6.998450  4.677874  2.350654
  S    -3.568191  1.080357 -0.284310
  S    -4.133401  4.855524 -0.653736
  S    -4.624968  2.007522  3.627653
  S    -4.661352  5.518016  3.423360
