16  
    
  C     3.105685  4.997081  3.479775
  C     3.392965  8.912000  3.688856
  C     1.909824  4.510416  2.920887
  C     2.044329  8.720228  3.253826
  N     4.151851  5.092483  2.653238
  N     4.327027  8.560645  2.732215
  N     1.958034  4.420306  1.592579
  N     1.932647  8.289252  2.000571
  N     1.442493  4.997966  5.421447
  N     1.788201  9.391282  5.719414
  S     0.579827  4.693230  4.058680
  S     0.827474  9.063198  4.365082
  S     3.517588  4.717701  1.181347
  S     3.423460  8.212400  1.396844
  S     3.031227  5.368378  5.138410
  S     3.416232  9.209096  5.429538
