16  
    
  C    -1.869416  2.387554  2.504634
  C    -1.733223  5.788665  2.403410
  C    -3.176600  2.240817  1.842989
  C    -2.902228  5.531091  1.596241
  N    -0.815824  2.578749  1.701382
  N    -0.629879  5.945718  1.636973
  N    -3.033377  2.125142  0.534091
  N    -2.729331  5.713989  0.288971
  N    -3.659276  2.202030  4.360436
  N    -3.624275  5.581462  4.071966
  S    -4.485578  1.968733  2.910479
  S    -4.290649  5.333124  2.583037
  S    -1.397832  2.453800  0.165160
  S    -1.079105  5.879115  0.011768
  S    -2.020203  2.491766  4.260392
  S    -2.007227  5.927772  4.114111
