16  
    
  C    -3.497198  1.796863  1.765786
  C    -3.620060  5.720910  1.799854
  C    -4.545604  0.906444  1.243121
  C    -4.868527  5.371677  1.077770
  N    -2.501661  2.123496  0.960235
  N    -2.586955  5.881064  1.003415
  N    -4.362139  0.670281 -0.058550
  N    -4.704481  5.250876 -0.244144
  N    -5.292673  1.524882  3.612289
  N    -5.364194  5.130800  3.546171
  S    -5.923710  0.748058  2.311350
  S    -6.181731  4.935611  2.122782
  S    -2.946568  1.415235 -0.514586
  S    -3.173598  5.654260 -0.581082
  S    -3.795459  2.125671  3.466252
  S    -3.772689  5.717763  3.542422
