16  
    
  C    -4.506047  0.961671  1.686961
  C    -4.780552  4.526569  1.529872
  C    -5.754232  0.614148  0.999704
  C    -5.962831  4.222696  0.793325
  N    -3.451472  1.190366  0.887657
  N    -3.703144  4.964826  0.830965
  N    -5.708983  0.767115 -0.314971
  N    -5.831169  4.475815 -0.521288
  N    -6.289887  0.662783  3.641317
  N    -6.646734  4.295057  3.361618
  S    -7.082391  0.510038  2.162251
  S    -7.366341  3.924379  1.956619
  S    -4.037114  1.279042 -0.663342
  S    -4.253667  4.970367 -0.724826
  S    -4.641605  1.045369  3.458404
  S    -4.998586  4.447702  3.295560
