16  
    
  C     2.284367  4.651078  3.166907
  C     2.090628  8.995959  3.396404
  C     1.010599  4.284009  2.566067
  C     0.892251  8.473426  2.747859
  N     3.249535  4.969932  2.303490
  N     3.131678  9.173242  2.621785
  N     1.003860  4.455556  1.261030
  N     1.106870  8.133588  1.479025
  N     0.582024  4.259184  5.072144
  N     0.406382  8.455064  5.298751
  S    -0.314314  3.939693  3.738881
  S    -0.465395  8.338529  3.872423
  S     2.543786  4.963865  0.797629
  S     2.678709  8.592814  1.166353
  S     2.141652  4.728132  4.922697
  S     1.980723  9.034618  5.163075
