16  
    
  C    -3.715858  1.782265  1.788631
  C    -3.944658  5.456884  1.864317
  C    -5.003633  1.346664  1.203455
  C    -5.115713  5.061164  1.064756
  N    -2.688174  1.854981  0.934125
  N    -2.916867  5.741309  1.081629
  N    -4.957858  1.369305 -0.107405
  N    -4.908286  5.150247 -0.262311
  N    -5.497050  1.600734  3.726897
  N    -5.729052  4.586851  3.554630
  S    -6.323307  1.149350  2.347174
  S    -6.483341  4.618950  2.032947
  S    -3.347724  1.642570 -0.620142
  S    -3.332428  5.611251 -0.481316
  S    -3.855362  1.741830  3.568984
  S    -4.273996  5.367064  3.596036
