16  
    
  C    -5.814895  0.849289  1.587432
  C    -6.008749  4.570783  1.612781
  C    -6.917565  0.238726  0.950604
  C    -7.236133  4.144670  0.883007
  N    -4.873411  1.158888  0.717283
  N    -4.968702  4.702512  0.809853
  N    -6.830575  0.131078 -0.370423
  N    -7.073686  4.102791 -0.412352
  N    -7.618046  0.613873  3.440235
  N    -7.856390  4.127215  3.360795
  S    -8.280040 -0.049412  2.055238
  S    -8.614643  4.002647  1.858649
  S    -5.379551  0.774705 -0.783735
  S    -5.509590  4.441758 -0.739334
  S    -6.061199  1.019222  3.275523
  S    -6.288291  4.727934  3.344390
