16  
    
  C    -1.689502  2.409212  2.420428
  C    -1.754159  6.197309  2.437750
  C    -2.898230  2.134060  1.719843
  C    -2.856704  5.651875  1.753449
  N    -0.682243  2.781612  1.636499
  N    -0.737800  6.397656  1.637200
  N    -2.780845  1.932266  0.421526
  N    -2.704624  5.493099  0.482925
  N    -3.554309  2.331127  4.193231
  N    -3.527018  5.710325  4.176513
  S    -4.328830  2.203080  2.740254
  S    -4.271059  5.388939  2.732235
  S    -1.158538  2.350688  0.090724
  S    -1.164737  5.894843  0.124166
  S    -1.945437  2.742945  4.092519
  S    -1.916945  6.232428  4.137160
