16  
    
  C    -4.706321  1.135699  1.451651
  C    -4.730009  4.747403  1.973382
  C    -5.976297  0.776222  0.806359
  C    -5.908407  4.200380  1.284798
  N    -3.672791  1.326742  0.682279
  N    -3.684155  4.898251  1.186965
  N    -5.846427  0.605543 -0.505376
  N    -5.744257  3.999225 -0.032447
  N    -6.511875  0.829602  3.254339
  N    -6.440681  4.471059  3.807763
  S    -7.331177  0.333392  1.895795
  S    -7.236796  4.045534  2.374254
  S    -4.174636  0.856603 -0.881451
  S    -4.154498  4.389533 -0.325623
  S    -4.971710  1.188106  3.164849
  S    -4.825707  4.988047  3.702452
