16  
    
  C    -4.559779  1.134270  1.569850
  C    -4.827475  4.685321  1.671307
  C    -5.840937  0.866327  0.921129
  C    -6.042734  4.401822  0.932288
  N    -3.507215  1.215731  0.747236
  N    -3.803400  4.851890  0.830016
  N    -5.816499  0.876331 -0.388209
  N    -5.998455  4.422185 -0.402608
  N    -6.401037  0.729870  3.344263
  N    -6.610533  4.174159  3.385736
  S    -7.238594  0.605548  1.891863
  S    -7.407766  4.103042  1.941098
  S    -4.141186  0.948359 -0.770992
  S    -4.399888  4.644838 -0.697034
  S    -4.698491  0.918675  3.235149
  S    -4.947458  4.553061  3.426968
