16  
    
  C     1.979748  4.488529  3.268218
  C     1.581822  7.883901  3.065255
  C     0.745515  4.153664  2.648340
  C     0.371722  7.539561  2.332428
  N     3.041870  4.654773  2.484678
  N     2.642982  8.066656  2.279085
  N     0.862364  3.883750  1.363506
  N     0.515484  7.495908  1.028927
  N     0.398307  4.219550  5.185032
  N    -0.305228  7.621008  4.786755
  S    -0.388198  3.690906  3.817573
  S    -0.922532  7.117509  3.331082
  S     2.466731  4.413332  0.904607
  S     2.127858  7.761793  0.746595
  S     1.829703  4.897262  4.966731
  S     1.302236  8.029674  4.799555
