16  
    
  C    -1.544424  2.837081  2.015941
  C    -1.159932  6.781727  2.201410
  C    -2.594299  2.000554  1.396729
  C    -2.465974  6.414651  1.664661
  N    -0.504997  3.166458  1.263089
  N    -0.177377  6.818786  1.297089
  N    -2.341298  1.809292  0.111121
  N    -2.460025  6.244059  0.339163
  N    -3.363190  2.392223  3.865906
  N    -2.856416  6.854274  4.183091
  S    -3.879927  1.640908  2.471991
  S    -3.683523  6.312206  2.885855
  S    -0.826441  2.453382 -0.191102
  S    -0.900631  6.447374 -0.197935
  S    -1.874976  3.137328  3.730966
  S    -1.275753  7.113320  3.899851
