16  
    
  C     0.518749  4.014534  2.919003
  C     0.669386  7.526417  2.870130
  C    -0.737739  3.406699  2.398983
  C    -0.501696  7.109213  2.083088
  N     1.543968  3.826344  2.064046
  N     1.767358  7.636036  2.150076
  N    -0.648118  3.048745  1.088550
  N    -0.235796  6.955881  0.803654
  N    -1.155429  3.793537  4.920110
  N    -1.307247  7.203136  4.489479
  S    -1.932669  3.323964  3.570090
  S    -1.923907  6.888861  3.028998
  S     0.873790  3.375988  0.636020
  S     1.345098  7.211189  0.568879
  S     0.479593  4.145203  4.705016
  S     0.262752  7.733235  4.556179
