16  
    
  C     1.966529  4.895429  3.048115
  C     2.341675  8.438548  3.162109
  C     0.816795  4.363076  2.321265
  C     1.115387  7.960573  2.470901
  N     2.966229  5.285003  2.221497
  N     3.322641  8.798638  2.356612
  N     1.080874  3.904275  1.057238
  N     1.209450  7.931960  1.161918
  N     0.171080  4.400413  4.950380
  N     0.481046  8.225946  4.990633
  S    -0.551501  4.155436  3.376396
  S    -0.230548  7.740168  3.579412
  S     2.525827  4.698127  0.685023
  S     2.828896  8.390847  0.770473
  S     1.722547  5.127365  4.796693
  S     2.085896  8.735638  4.849002
