16  
    
  C     2.982171  5.171375  3.465564
  C     2.859309  8.725646  3.309092
  C     1.729628  4.788166  2.811480
  C     1.683237  8.183888  2.630647
  N     3.927996  5.604595  2.593792
  N     3.894479  9.126806  2.648845
  N     1.845523  4.647611  1.487307
  N     1.919307  8.200788  1.332660
  N     1.057910  5.110542  5.250749
  N     1.207579  8.316043  5.180822
  S     0.428266  4.358038  3.859665
  S     0.398724  7.784806  3.821955
  S     3.381702  5.221204  1.067834
  S     3.459578  8.904287  1.100067
  S     2.720180  5.366610  5.225677
  S     2.662297  9.019664  5.036981
