16  
    
  C     0.007715  3.229920  2.609691
  C    -0.036684  7.063237  2.555667
  C    -1.141469  2.661601  1.891496
  C    -1.192293  6.585810  1.916660
  N     0.920333  3.756892  1.777192
  N     0.993892  7.482750  1.797092
  N    -0.915400  2.363124  0.616542
  N    -1.175883  6.659842  0.578476
  N    -1.880856  2.892199  4.317357
  N    -1.814586  6.488659  4.484361
  S    -2.509278  2.299815  2.902932
  S    -2.557359  6.329301  3.010878
  S     0.500220  3.162177  0.239514
  S     0.372810  7.201212  0.188463
  S    -0.351119  3.524452  4.336281
  S    -0.232732  6.955268  4.366130
