16  
    
  C    -2.431578  2.259047  2.124137
  C    -2.629628  5.673569  2.140195
  C    -3.684006  2.076177  1.507757
  C    -3.822090  5.175213  1.482895
  N    -1.387902  2.333598  1.267157
  N    -1.631366  5.815994  1.244674
  N    -3.636169  1.851525  0.195902
  N    -3.765435  5.061813  0.140801
  N    -4.170975  1.974440  4.038251
  N    -4.362318  5.287394  3.973616
  S    -4.994160  1.859901  2.633056
  S    -5.141789  4.982025  2.534673
  S    -1.997067  1.987995 -0.220920
  S    -2.279499  5.653531 -0.286843
  S    -2.579785  2.338971  3.909228
  S    -2.782309  5.717641  3.849376
