16  
    
  C     3.110746  5.056033  3.456730
  C     3.332450  8.830158  3.718187
  C     1.876071  4.503834  2.909071
  C     2.010275  8.656011  3.240987
  N     4.143143  5.068093  2.621095
  N     4.258153  8.592935  2.770618
  N     1.956958  4.388499  1.562277
  N     1.835363  8.275170  1.972473
  N     1.459533  5.001418  5.431227
  N     1.816423  9.393137  5.691214
  S     0.557932  4.676505  4.087232
  S     0.810477  9.072928  4.435748
  S     3.541965  4.735055  1.161247
  S     3.451405  8.196121  1.380553
  S     3.018675  5.350304  5.133074
  S     3.406286  9.246132  5.415329
