16  
    
  C    -5.482932  0.999778  1.316757
  C    -5.328353  5.186794  1.475096
  C    -6.600345  0.533085  0.590642
  C    -6.429599  4.495524  0.809039
  N    -4.554369  1.433865  0.500152
  N    -4.339652  5.464138  0.662100
  N    -6.415867  0.474847 -0.726658
  N    -6.197361  4.274043 -0.447093
  N    -7.291445  0.593425  3.111049
  N    -6.976028  4.278050  3.259530
  S    -7.924918  0.084514  1.625744
  S    -7.675418  3.906347  1.794659
  S    -4.930061  1.099371 -1.048153
  S    -4.690005  4.839199 -0.845198
  S    -5.700678  1.132729  3.050295
  S    -5.593587  5.206097  3.154381
