16  
    
  C    -0.206932  3.016548  2.628642
  C    -0.231275  7.013455  2.371063
  C    -1.543016  2.683433  2.061050
  C    -1.273298  6.275704  1.737199
  N     0.740746  3.324007  1.732746
  N     0.737580  7.375719  1.517474
  N    -1.451247  2.469473  0.752434
  N    -1.116446  6.162865  0.405908
  N    -1.875581  2.889138  4.576860
  N    -1.941216  6.553530  4.266125
  S    -2.756883  2.378909  3.275823
  S    -2.613312  5.967406  2.852436
  S     0.065545  2.981143  0.250573
  S     0.393154  6.785756 -0.001521
  S    -0.322234  3.379992  4.302834
  S    -0.428679  7.183401  4.088305
