16  
    
  C    -1.821111  2.372919  2.268877
  C    -1.897819  6.270613  2.270188
  C    -3.056702  1.942240  1.634767
  C    -3.019046  5.550478  1.691592
  N    -0.812878  2.693158  1.427093
  N    -0.904084  6.504657  1.411397
  N    -2.870174  1.723972  0.332209
  N    -3.011241  5.437156  0.363691
  N    -3.567375  2.188409  4.136229
  N    -3.496057  6.017516  4.193560
  S    -4.374248  1.773308  2.721651
  S    -4.216170  5.289928  2.888771
  S    -1.346089  2.179920 -0.054033
  S    -1.452877  5.896439 -0.012966
  S    -1.951030  2.590464  3.998432
  S    -1.995935  6.721305  3.976373
