16  
    
  C    -1.307958  3.347662  2.084149
  C    -1.013205  6.842908  2.590009
  C    -2.483341  2.822503  1.459537
  C    -2.255547  6.612284  1.959661
  N    -0.350999  3.689986  1.218241
  N     0.003068  6.993628  1.727990
  N    -2.406397  2.530519  0.151180
  N    -2.244211  6.755876  0.619063
  N    -2.932737  2.846594  3.976461
  N    -2.763525  6.847814  4.448637
  S    -3.681270  2.194081  2.648238
  S    -3.555805  6.655627  3.002180
  S    -0.936698  3.235216 -0.286756
  S    -0.700348  7.028595  0.235233
  S    -1.506846  3.622681  3.741537
  S    -1.081777  7.001619  4.310509
