16  
    
  C     2.994244  5.351386  3.891474
  C     2.688641  8.591925  3.154207
  C     1.711932  4.889242  3.355546
  C     1.387921  8.245353  2.608847
  N     4.040252  5.200566  3.044431
  N     3.639286  8.518234  2.194650
  N     1.751360  4.702820  2.029150
  N     1.333467  8.032538  1.274246
  N     1.228330  5.745692  5.787692
  N     0.951446  8.709210  5.065476
  S     0.342136  5.242758  4.427159
  S     0.045148  8.179985  3.759948
  S     3.328073  4.811672  1.589751
  S     2.860122  8.165330  0.771226
  S     2.910847  5.886038  5.531858
  S     2.599883  8.978040  4.852653
