16  
    
  C     0.940335  3.842161  2.526825
  C     1.595806  7.972214  3.283437
  C    -0.353109  3.552631  1.900500
  C     0.245917  7.894336  2.650000
  N     1.964468  3.993217  1.693446
  N     2.641012  8.073397  2.442506
  N    -0.161303  3.313964  0.624075
  N     0.299858  7.848878  1.308304
  N    -0.807822  3.556604  4.406803
  N    -0.169743  7.855193  5.172769
  S    -1.634657  3.181007  2.991825
  S    -1.068543  7.875124  3.788796
  S     1.349034  3.717660  0.191977
  S     1.880993  7.958133  0.940887
  S     0.687605  4.084399  4.204817
  S     1.453052  8.045057  5.042528
