16  
    
  C    -1.372308  3.399791  2.038813
  C    -0.944469  6.848758  2.562571
  C    -2.533672  2.751107  1.431206
  C    -2.276425  6.723510  1.900308
  N    -0.409137  3.702897  1.204498
  N     0.072289  6.924715  1.701973
  N    -2.367358  2.518495  0.156103
  N    -2.263083  6.737003  0.580754
  N    -2.989792  2.822633  3.975732
  N    -2.753443  6.857674  4.468012
  S    -3.700818  2.204535  2.597886
  S    -3.575658  6.624238  2.995920
  S    -0.931497  3.199437 -0.291453
  S    -0.708635  7.015823  0.208444
  S    -1.526849  3.596202  3.755140
  S    -1.065121  7.023086  4.328729
