16  
    
  C     0.864377  4.138407  2.553194
  C     1.494980  8.494782  3.147865
  C    -0.204263  3.409769  1.871601
  C     0.265771  8.209578  2.489346
  N     1.958801  4.367894  1.776567
  N     2.540591  8.536985  2.350182
  N    -0.081206  3.298987  0.533578
  N     0.372090  8.189833  1.145870
  N    -0.884410  3.733140  4.397758
  N    -0.183313  8.127442  5.079427
  S    -1.556958  3.148221  2.932674
  S    -1.035293  7.996720  3.666475
  S     1.479237  3.797505  0.252311
  S     1.941241  8.441006  0.741307
  S     0.638246  4.340769  4.234372
  S     1.409568  8.654873  4.856906
