16  
    
  C    -1.069743  3.022693  2.472616
  C    -0.573577  6.516832  2.317716
  C    -2.310762  2.820981  1.747171
  C    -1.844833  6.151295  1.702854
  N    -0.041983  3.107721  1.669200
  N     0.437421  6.707815  1.472322
  N    -2.203339  2.527916  0.449417
  N    -1.821764  6.298559  0.373226
  N    -2.888380  3.201399  4.252499
  N    -2.366597  6.606771  4.222648
  S    -3.697833  2.987275  2.843642
  S    -3.220226  6.250295  2.798374
  S    -0.541354  2.675725  0.142558
  S    -0.299810  6.540840 -0.044653
  S    -1.247178  3.353904  4.157633
  S    -0.693602  6.885943  4.009546
