16  
    
  C    -0.714482  3.087230  2.485240
  C    -0.989110  6.375627  2.545189
  C    -1.921757  2.538315  1.883916
  C    -2.156723  6.006316  1.823567
  N     0.277277  3.128633  1.573251
  N     0.072859  6.491811  1.787383
  N    -1.892948  2.467069  0.529209
  N    -2.034600  5.744967  0.535605
  N    -2.417059  2.724157  4.343025
  N    -2.850810  6.288135  4.182849
  S    -3.299399  2.482819  2.984543
  S    -3.502685  5.636773  2.772165
  S    -0.335796  2.763889  0.085947
  S    -0.465656  6.259631  0.241632
  S    -0.862947  3.238207  4.188829
  S    -1.254241  6.628570  4.198925
