16  
    
  C    -5.413021  1.049356  1.548424
  C    -5.130958  4.616933  1.517549
  C    -6.650022  0.700778  0.927190
  C    -6.449157  4.194269  1.016337
  N    -4.389562  1.091449  0.718297
  N    -4.206149  4.587754  0.579571
  N    -6.608047  0.678241 -0.391284
  N    -6.495474  3.974521 -0.273273
  N    -7.126388  1.071621  3.462790
  N    -6.799389  4.531124  3.522246
  S    -7.955932  0.972635  2.027809
  S    -7.737887  4.291420  2.157680
  S    -4.992936  0.902354 -0.808590
  S    -4.964286  4.199418 -0.870073
  S    -5.537411  1.367393  3.294025
  S    -5.237545  5.064532  3.219630
