16  
    
  C     1.892208  4.266564  3.291799
  C     1.821889  7.797924  3.066937
  C     0.616410  3.961415  2.639374
  C     0.587314  7.363406  2.393689
  N     2.842406  4.250881  2.407962
  N     2.786526  8.211085  2.227247
  N     0.601250  3.861839  1.346334
  N     0.610106  7.451736  1.050178
  N     0.117264  4.129474  5.145007
  N     0.218265  7.374618  5.004884
  S    -0.697289  4.033762  3.742171
  S    -0.660927  7.093885  3.602757
  S     2.219432  4.189770  0.817982
  S     2.167015  8.091187  0.727981
  S     1.806257  4.176315  5.024099
  S     1.793999  7.808571  4.778662
