16  
    
  C    -5.355161  1.150080  1.418362
  C    -5.359692  4.628710  1.587595
  C    -6.582133  0.683743  0.799499
  C    -6.611519  4.177741  1.131000
  N    -4.322888  1.184909  0.550634
  N    -4.441627  4.761218  0.615471
  N    -6.427160  0.498571 -0.508078
  N    -6.717156  4.036871 -0.192174
  N    -7.056529  0.964992  3.252791
  N    -6.962749  4.448324  3.683993
  S    -7.897163  0.575274  1.916605
  S    -7.874777  4.206123  2.292854
  S    -4.868231  0.838302 -0.939698
  S    -5.208278  4.385698 -0.833765
  S    -5.469668  1.379209  3.150485
  S    -5.391194  4.778747  3.339896
