16  
    
  C    -1.836266  2.475315  2.414979
  C    -1.720523  5.976148  2.374570
  C    -3.089609  2.371226  1.759837
  C    -2.892525  5.549366  1.685112
  N    -0.761299  2.609053  1.633183
  N    -0.617573  6.145359  1.707769
  N    -2.998140  2.270466  0.436598
  N    -2.665144  5.394526  0.417013
  N    -3.620781  2.361743  4.296329
  N    -3.650964  5.763625  4.113013
  S    -4.364727  2.022133  2.852878
  S    -4.321273  5.327429  2.640955
  S    -1.350536  2.376103  0.108039
  S    -1.118249  5.953807  0.098681
  S    -1.992555  2.542950  4.191584
  S    -2.012350  5.964016  4.058250
