16  
    
  C    -5.374592  1.193868  1.303672
  C    -5.488445  4.837912  1.577344
  C    -6.567191  0.674110  0.654269
  C    -6.703605  4.464491  0.920360
  N    -4.405423  1.454722  0.450701
  N    -4.472447  4.947636  0.759806
  N    -6.380607  0.476858 -0.633670
  N    -6.618041  4.329264 -0.382623
  N    -7.170466  0.751792  3.138308
  N    -7.256996  4.683109  3.433360
  S    -7.790993  0.076798  1.773427
  S    -8.009383  4.124015  2.026405
  S    -4.876642  0.998343 -1.034376
  S    -5.018093  4.672123 -0.798766
  S    -5.567130  1.183905  2.988630
  S    -5.610797  4.877580  3.372751
