16  
    
  C    -0.404995  3.443704  2.524741
  C    -0.269798  6.991240  2.279325
  C    -1.623965  2.989370  1.967889
  C    -1.587980  6.592960  1.730375
  N     0.567300  3.467329  1.619549
  N     0.690156  7.125862  1.380830
  N    -1.639654  2.767236  0.637452
  N    -1.575665  6.442802  0.384650
  N    -1.974344  3.157508  4.555869
  N    -1.856536  6.678445  4.339160
  S    -2.915725  2.998509  3.153439
  S    -2.803090  6.392966  3.019394
  S    -0.084657  3.146927  0.126531
  S    -0.003076  6.839038 -0.135268
  S    -0.364095  3.390596  4.263606
  S    -0.320352  7.114338  3.986987
