16  
    
  C     2.841150  5.165629  3.784734
  C     2.235413  8.590949  3.389476
  C     1.669921  4.485950  3.316929
  C     1.176572  7.927118  2.694442
  N     3.807745  5.285262  2.867038
  N     3.387341  8.799280  2.764039
  N     1.679304  4.257667  2.012210
  N     1.509122  7.725350  1.440068
  N     1.153708  4.922777  5.823734
  N     0.319410  8.411839  5.072276
  S     0.349381  4.536720  4.412468
  S    -0.129304  7.531305  3.774608
  S     3.205364  4.625911  1.438063
  S     3.052667  8.400709  1.189586
  S     2.640508  5.685719  5.429531
  S     1.907658  8.969187  4.999173
