16  
    
  C     0.863946  3.940685  2.499871
  C     1.505788  8.102811  3.292381
  C    -0.336521  3.268555  1.859289
  C     0.217704  7.963135  2.635973
  N     1.906305  4.088900  1.690935
  N     2.546551  8.231335  2.474071
  N    -0.273114  3.272080  0.529363
  N     0.349515  7.862837  1.319437
  N    -0.816457  3.623765  4.410745
  N    -0.212725  8.003672  5.194249
  S    -1.618864  3.188382  3.009226
  S    -1.071753  7.955100  3.764770
  S     1.319394  3.657548  0.140927
  S     1.904704  8.109410  0.894095
  S     0.762230  4.189238  4.265674
  S     1.493534  8.104534  5.028234
