16  
    
  C     0.905200  3.911035  2.496516
  C     1.515534  8.093097  3.323506
  C    -0.312885  3.349619  1.882013
  C     0.257900  7.897292  2.682249
  N     1.955913  4.038961  1.688943
  N     2.502242  8.170476  2.474698
  N    -0.274014  3.272308  0.550053
  N     0.310696  7.873291  1.360456
  N    -0.866455  3.566706  4.436799
  N    -0.200759  7.943914  5.187989
  S    -1.628885  3.193138  3.018103
  S    -1.056849  7.939394  3.762533
  S     1.325115  3.683639  0.142864
  S     1.923523  8.058744  0.921084
  S     0.749615  4.168111  4.243686
  S     1.495478  8.078246  4.990325
