16  
    
  C    -3.153707  1.927933  1.859406
  C    -3.132659  5.823529  2.096265
  C    -4.334179  1.443040  1.124637
  C    -4.357144  5.286105  1.520856
  N    -2.094145  2.106781  1.107042
  N    -2.164009  6.017848  1.205068
  N    -4.069088  1.228958 -0.144239
  N    -4.299638  5.142103  0.207828
  N    -5.108136  1.704429  3.430017
  N    -4.794885  5.385354  4.047786
  S    -5.728448  1.137089  2.001238
  S    -5.653249  5.000810  2.665977
  S    -2.476545  1.649884 -0.404729
  S    -2.834850  5.761876 -0.315150
  S    -3.502667  2.105599  3.577483
  S    -3.260607  5.776712  3.794463
