16  
    
  C    -4.681244  1.047190  1.444238
  C    -4.794946  4.717283  1.692511
  C    -5.935076  0.951575  0.691206
  C    -6.028024  4.495739  1.016848
  N    -3.606595  1.129073  0.656085
  N    -3.717086  4.776758  0.893177
  N    -5.774159  0.725929 -0.623459
  N    -5.939694  4.357821 -0.316120
  N    -6.446473  0.747534  3.279059
  N    -6.610752  4.155268  3.562470
  S    -7.213249  0.686117  1.877795
  S    -7.410475  4.192448  2.136336
  S    -4.153594  0.924318 -0.884972
  S    -4.331253  4.545093 -0.645279
  S    -4.831941  0.932566  3.241424
  S    -5.034736  4.647109  3.406001
