16  
    
  C    -4.919890  0.994664  1.785489
  C    -4.791200  4.698341  1.754588
  C    -6.062337  0.445125  1.092789
  C    -5.871953  4.020078  1.128810
  N    -3.919661  1.284351  0.962965
  N    -3.805005  5.069442  0.952323
  N    -5.878727  0.182158 -0.199384
  N    -5.731215  3.859834 -0.186776
  N    -6.771753  0.941374  3.449547
  N    -6.702586  4.599028  3.499522
  S    -7.316589  0.121326  2.161164
  S    -7.297846  3.904031  2.124712
  S    -4.356102  0.847389 -0.558481
  S    -4.251473  4.575469 -0.584402
  S    -5.247529  1.507096  3.398923
  S    -5.142075  5.184315  3.355039
