16  
    
  C     1.858117  5.129045  3.126531
  C     2.231769  8.647776  3.257937
  C     0.807968  4.513601  2.351212
  C     1.053403  8.157376  2.633140
  N     2.961510  5.254260  2.446140
  N     3.172938  9.002073  2.362158
  N     1.127136  4.373462  1.063612
  N     1.107027  8.093002  1.292586
  N     0.001731  4.806557  4.768241
  N     0.412993  8.062679  5.044546
  S    -0.536702  4.118332  3.411396
  S    -0.308255  7.773576  3.589068
  S     2.706023  4.868981  0.867911
  S     2.607604  8.487695  0.872453
  S     1.584189  5.289562  4.852123
  S     1.984579  8.522307  5.037888
