16  
    
  C    -0.238162  3.037895  2.590693
  C    -0.235395  7.000411  2.320877
  C    -1.470514  2.592197  2.064872
  C    -1.293124  6.303368  1.700237
  N     0.756866  3.321719  1.756099
  N     0.809289  7.381517  1.607228
  N    -1.476133  2.536392  0.725182
  N    -1.127395  6.183353  0.389894
  N    -1.920650  2.866657  4.587851
  N    -1.930991  6.493219  4.236931
  S    -2.734348  2.351849  3.238397
  S    -2.620625  5.977023  2.826764
  S     0.075183  2.953347  0.242716
  S     0.392964  6.836516  0.026267
  S    -0.306758  3.428637  4.344850
  S    -0.390608  7.161586  4.070200
