16  
    
  C     0.201622  3.495941  2.325320
  C     0.261419  7.533785  2.882819
  C    -1.144841  3.352449  1.723971
  C    -0.841339  6.783694  2.261070
  N     1.185126  3.584255  1.417425
  N     1.275012  7.754194  2.031435
  N    -1.077816  3.190377  0.417994
  N    -0.647171  6.369058  1.005552
  N    -1.598275  3.336442  4.240369
  N    -1.519021  7.185145  4.647135
  S    -2.407389  3.004281  2.823219
  S    -2.202341  6.600295  3.261076
  S     0.435884  3.540803 -0.070411
  S     0.817714  6.941941  0.676126
  S     0.082258  3.567009  4.059945
  S     0.003486  7.917030  4.551858
