16  
    
  C     2.889253  5.478485  3.881119
  C     2.421242  8.606381  3.316678
  C     1.778313  4.686547  3.393143
  C     1.249167  8.034315  2.630208
  N     3.916647  5.556690  3.029141
  N     3.488484  8.691209  2.556267
  N     1.816193  4.371212  2.085297
  N     1.458612  7.730726  1.348725
  N     1.165081  5.419851  5.795950
  N     0.558806  8.423730  5.069314
  S     0.416983  4.802726  4.402274
  S    -0.124313  7.847585  3.683687
  S     3.367710  4.743328  1.675529
  S     2.963834  8.248795  0.996908
  S     2.809069  5.748760  5.560939
  S     2.099955  8.812665  5.018615
