16  
    
  C     2.143871  4.408440  3.029842
  C     1.976672  8.111799  3.129563
  C     0.942168  4.018390  2.359573
  C     0.852542  7.529099  2.500482
  N     3.175667  4.694928  2.226100
  N     3.068605  8.247772  2.372932
  N     1.184171  3.571261  1.134786
  N     1.132473  7.119284  1.252775
  N     0.291726  4.457276  4.779839
  N     0.069809  8.226379  4.825872
  S    -0.407862  3.967573  3.321394
  S    -0.581719  7.567522  3.480606
  S     2.752365  4.022013  0.733577
  S     2.689181  7.504657  0.957750
  S     1.879303  4.810409  4.756852
  S     1.716814  8.503625  4.833452
