16  
    
  C    -2.330759  1.939676  2.109048
  C    -2.656880  5.675740  2.071005
  C    -3.670389  1.907918  1.487280
  C    -3.847167  5.253557  1.409231
  N    -1.349933  1.953986  1.185002
  N    -1.640483  5.853712  1.307215
  N    -3.648057  1.700195  0.163046
  N    -3.756496  5.255862  0.085666
  N    -4.060848  2.268262  3.951476
  N    -4.327542  5.495782  3.918022
  S    -5.011134  2.051027  2.628414
  S    -5.124946  4.971417  2.560057
  S    -2.027196  1.848145 -0.284830
  S    -2.147320  5.477056 -0.243633
  S    -2.447865  2.349565  3.749514
  S    -2.717893  5.744468  3.803107
