16  
    
  C    -3.396996  1.750445  1.554140
  C    -3.746694  5.386594  1.656756
  C    -4.570608  1.120393  0.989159
  C    -4.952864  4.972988  1.041731
  N    -2.366439  1.815071  0.682625
  N    -2.767019  5.738043  0.862423
  N    -4.428030  0.892840 -0.314937
  N    -4.913989  4.874095 -0.281288
  N    -5.067100  1.446571  3.507639
  N    -5.514981  5.245692  3.536150
  S    -5.811123  0.926144  2.167449
  S    -6.282360  4.739749  2.158450
  S    -2.880123  1.330054 -0.764918
  S    -3.350573  5.318976 -0.728686
  S    -3.611313  2.144819  3.309235
  S    -3.942150  5.560784  3.356994
