16  
    
  C    -1.770438  2.407280  1.960759
  C    -1.827000  6.468773  2.176997
  C    -3.020648  2.043176  1.355660
  C    -2.832432  5.660065  1.647708
  N    -0.775437  2.366848  1.083801
  N    -0.960147  6.841828  1.258581
  N    -3.036134  1.995765  0.004140
  N    -2.697858  5.188654  0.395167
  N    -3.373441  2.164951  3.905231
  N    -3.486558  6.025291  4.033348
  S    -4.252124  1.857227  2.547168
  S    -4.196957  5.492766  2.639747
  S    -1.436664  2.225461 -0.404451
  S    -1.235808  5.875024 -0.065603
  S    -1.798109  2.582848  3.684072
  S    -2.173742  7.003444  3.739834
