16  
    
  C    -6.019004  0.844633  1.486760
  C    -6.156547  4.444144  1.736233
  C    -7.156054  0.155943  0.953964
  C    -7.263730  4.064476  1.025747
  N    -5.136289  1.266439  0.586883
  N    -5.018553  4.635515  1.057612
  N    -7.071854  0.091842 -0.364477
  N    -7.066685  4.034155 -0.289910
  N    -7.466629  0.220182  3.491255
  N    -8.030417  4.171314  3.520754
  S    -8.312632 -0.227753  2.091346
  S    -8.730257  3.834303  2.040734
  S    -5.672673  0.808886 -0.864179
  S    -5.464893  4.450797 -0.533323
  S    -6.040013  1.071720  3.236786
  S    -6.445701  4.544943  3.406041
