16  
    
  C    -5.859734  0.809645  1.559632
  C    -6.069978  4.386238  1.710042
  C    -7.021160  0.179382  0.934765
  C    -7.282728  4.089659  0.915993
  N    -4.947777  1.237003  0.706749
  N    -5.010157  4.658721  0.978313
  N    -6.987387  0.023933 -0.389137
  N    -7.106309  4.036460 -0.394789
  N    -7.543370  0.360206  3.473390
  N    -7.945249  4.066310  3.430274
  S    -8.354429 -0.149851  2.065178
  S    -8.700716  3.945026  1.947488
  S    -5.574925  0.824333 -0.824628
  S    -5.496528  4.470100 -0.591183
  S    -6.013021  1.093754  3.262610
  S    -6.363065  4.681677  3.400205
