16  
    
  C    -2.720109  2.648764  2.353866
  C    -2.750168  6.118095  1.952795
  C    -3.878408  2.037696  1.731584
  C    -3.836158  5.580337  1.184103
  N    -1.753137  3.002989  1.509779
  N    -1.698717  6.467349  1.247221
  N    -3.700970  1.757854  0.423682
  N    -3.651842  5.562076 -0.151591
  N    -4.388467  2.131403  4.215034
  N    -4.424295  5.467404  3.705749
  S    -5.061162  1.379254  2.922295
  S    -5.208539  5.246586  2.249825
  S    -2.254998  2.426393 -0.034033
  S    -2.090488  6.166206 -0.313922
  S    -2.889430  2.797452  4.035011
  S    -2.998198  6.256975  3.680510
