16  
    
  C    -0.220848  3.120505  2.612239
  C    -0.162175  6.971530  2.379569
  C    -1.428072  2.700957  2.062261
  C    -1.291271  6.472980  1.726623
  N     0.768396  3.329133  1.753401
  N     0.850949  7.257046  1.607586
  N    -1.383396  2.482413  0.753454
  N    -1.104705  6.341992  0.439762
  N    -1.891719  2.869003  4.528829
  N    -1.842413  6.412644  4.175070
  S    -2.651727  2.267950  3.171725
  S    -2.615246  5.979456  2.728909
  S     0.145780  2.931768  0.264414
  S     0.364090  6.990750  0.089803
  S    -0.398150  3.479850  4.364206
  S    -0.333146  7.074376  4.096655
