16  
    
  C    -1.560695  2.629726  2.408015
  C    -1.523581  6.422286  2.332861
  C    -2.699510  2.216208  1.594146
  C    -2.733633  5.920626  1.741025
  N    -0.459220  2.735040  1.658931
  N    -0.500584  6.500192  1.465095
  N    -2.459451  1.898596  0.306188
  N    -2.594587  5.656246  0.451145
  N    -3.460554  2.474807  4.036936
  N    -3.256503  6.245018  4.205589
  S    -4.046569  1.838814  2.627329
  S    -4.062613  5.726287  2.795089
  S    -0.814624  2.248228  0.102116
  S    -1.129554  6.163577 -0.020354
  S    -1.890109  3.024800  4.035663
  S    -1.645139  6.600729  4.011997
