16  
    
  C    -1.173106  3.049608  2.260732
  C    -0.935845  6.801248  2.473734
  C    -2.438832  2.702321  1.682033
  C    -2.252548  6.565046  1.871914
  N    -0.212026  3.067859  1.356606
  N    -0.010531  7.108423  1.573813
  N    -2.550640  2.811239  0.360963
  N    -2.277215  6.551701  0.543535
  N    -2.835542  3.086844  4.249775
  N    -2.673868  6.803881  4.343223
  S    -3.729080  2.722270  2.875058
  S    -3.594923  6.553080  3.021503
  S    -0.956624  2.927403 -0.152875
  S    -0.771350  6.911725  0.103505
  S    -1.195815  3.319109  4.000476
  S    -1.014696  7.051412  4.212459
