16  
    
  C    -2.718307  2.649358  2.358405
  C    -2.757890  6.108073  1.945996
  C    -3.886474  2.039504  1.732112
  C    -3.842410  5.571549  1.187865
  N    -1.756081  3.007598  1.509452
  N    -1.690275  6.449296  1.253797
  N    -3.698690  1.761536  0.423302
  N    -3.648682  5.558676 -0.160562
  N    -4.386995  2.129478  4.215751
  N    -4.426829  5.461942  3.709958
  S    -5.059427  1.374882  2.922945
  S    -5.204507  5.243259  2.254139
  S    -2.252832  2.427709 -0.032720
  S    -2.095216  6.167356 -0.316672
  S    -2.888516  2.794506  4.036268
  S    -2.999735  6.251562  3.682115
