16  
    
  C     2.818856  5.189790  3.176839
  C     2.892783  9.087934  3.628800
  C     1.739229  4.429817  2.627796
  C     1.850664  8.368974  2.934077
  N     3.864120  5.318861  2.364130
  N     3.779952  9.623399  2.825814
  N     1.838726  4.197339  1.315939
  N     2.064246  8.299266  1.595205
  N     1.268447  4.939142  5.099700
  N     1.096089  8.649155  5.467720
  S     0.498082  4.164824  3.856600
  S     0.477897  8.119238  3.976914
  S     3.279895  4.856630  0.872754
  S     3.509290  9.054971  1.306734
  S     2.833377  5.475701  4.866668
  S     2.638941  9.321393  5.335585
