16  
    
  C    -3.396871  1.728482  1.553062
  C    -3.908336  5.370735  1.639222
  C    -4.584172  1.038227  1.055213
  C    -5.135218  4.849541  1.001844
  N    -2.406405  1.954740  0.695235
  N    -2.881905  5.439004  0.802767
  N    -4.482913  0.986621 -0.269483
  N    -5.057026  4.649817 -0.319426
  N    -5.096650  1.518373  3.460395
  N    -5.524906  5.189020  3.571804
  S    -5.916077  0.953535  2.120075
  S    -6.349017  4.572056  2.198556
  S    -3.027296  1.556673 -0.746439
  S    -3.519786  5.110776 -0.746462
  S    -3.569278  2.184805  3.236224
  S    -3.925389  5.576713  3.348372
