16  
    
  C     3.052687  5.161031  3.413772
  C     3.425294  9.036558  3.570523
  C     2.028093  4.357104  2.759203
  C     2.125984  8.677702  3.003831
  N     4.050649  5.480783  2.601485
  N     4.395834  8.999910  2.649893
  N     2.140622  4.348454  1.402470
  N     2.046817  8.422023  1.713989
  N     1.153229  5.059969  5.078542
  N     1.607357  8.828718  5.427730
  S     0.595755  4.143973  3.803103
  S     0.728087  8.596827  4.072279
  S     3.710816  4.992149  1.057027
  S     3.600312  8.766754  1.121108
  S     2.779826  5.391876  5.140445
  S     3.169498  9.292763  5.311742
