16  
    
  C     0.177639  3.398563  2.282791
  C     0.200175  7.400981  2.864805
  C    -1.091586  3.209993  1.676332
  C    -0.912852  6.686951  2.239588
  N     1.088373  3.805782  1.441086
  N     1.249106  7.539616  2.052373
  N    -1.048828  3.151069  0.348923
  N    -0.692594  6.440893  0.931466
  N    -1.500190  3.066461  4.198978
  N    -1.677073  7.234891  4.729734
  S    -2.349383  2.938348  2.836557
  S    -2.335412  6.582319  3.380142
  S     0.560189  3.473963 -0.074423
  S     0.851616  7.028292  0.572036
  S     0.121019  3.419218  4.062780
  S    -0.120805  7.796971  4.528573
