16  
    
  C    -0.680905  2.883904  2.631961
  C    -1.337125  6.617508  2.545130
  C    -1.941000  2.629562  1.983083
  C    -2.435660  5.980847  1.827602
  N     0.324106  3.095538  1.767366
  N    -0.282967  6.821236  1.764455
  N    -1.841440  2.369887  0.663912
  N    -2.183874  5.715135  0.526545
  N    -2.597455  2.939487  4.468538
  N    -2.947501  5.939739  4.300457
  S    -3.353506  2.485688  2.991506
  S    -3.741964  5.602605  2.863535
  S    -0.269646  2.676566  0.249757
  S    -0.725264  6.388023  0.255076
  S    -0.912002  3.291680  4.297544
  S    -1.418620  6.556558  4.208648
