16  
    
  C    -4.302049  1.578906  1.961436
  C    -4.607611  5.079749  1.665875
  C    -5.525610  1.035084  1.368463
  C    -5.799186  4.580376  1.079786
  N    -3.298774  1.795135  1.097654
  N    -3.622167  5.371953  0.806080
  N    -5.412863  0.775279  0.086300
  N    -5.725599  4.314842 -0.240148
  N    -6.067629  1.260956  3.893496
  N    -6.338458  4.650672  3.697758
  S    -6.832991  0.747948  2.549288
  S    -7.109921  4.323085  2.222447
  S    -3.844488  1.241501 -0.365474
  S    -4.223258  4.823723 -0.685929
  S    -4.580142  1.831461  3.677678
  S    -4.847681  5.366287  3.488461
