16  
    
  C     2.009950  4.214179  3.099143
  C     2.015626  7.983862  3.123624
  C     0.684460  4.091375  2.543530
  C     0.781430  7.611935  2.400691
  N     3.009527  4.288862  2.216440
  N     3.108249  8.059589  2.373080
  N     0.702703  3.873726  1.237660
  N     0.957123  7.473582  1.091075
  N     0.253991  4.229484  4.947548
  N     0.200287  7.619460  4.897538
  S    -0.623536  3.970925  3.629803
  S    -0.580836  7.289564  3.477494
  S     2.335226  3.912910  0.685153
  S     2.575481  7.864585  0.830855
  S     1.834516  4.690341  4.756596
  S     1.759529  8.120676  4.829841
