16  
    
  C    -0.329754  3.252741  2.605643
  C    -0.212793  7.050933  2.384310
  C    -1.554629  2.575862  2.056897
  C    -1.335799  6.300682  1.798461
  N     0.690596  3.362429  1.739517
  N     0.783240  7.360285  1.535693
  N    -1.481460  2.458832  0.733368
  N    -1.176961  5.937165  0.536441
  N    -1.942561  2.905475  4.630744
  N    -2.001486  6.692162  4.222240
  S    -2.776402  2.487022  3.262865
  S    -2.596371  5.905831  2.891130
  S     0.031596  2.961130  0.249259
  S     0.229059  6.666421  0.057580
  S    -0.285470  3.292060  4.341454
  S    -0.428936  7.314516  4.108298
