16  
    
  C     2.445639  4.784461  3.435034
  C     2.620510  8.739096  3.474310
  C     1.336480  4.135796  2.730799
  C     1.344962  8.239706  2.950159
  N     3.536016  5.005288  2.689279
  N     3.504905  8.920900  2.460439
  N     1.525070  4.191451  1.414822
  N     1.272942  8.032234  1.638962
  N     0.574938  4.350325  5.232772
  N     0.930556  8.453732  5.434856
  S    -0.155622  3.935383  3.725588
  S     0.066007  8.103466  4.116314
  S     3.040337  4.806713  1.119925
  S     2.754907  8.404285  1.069409
  S     2.159328  4.880851  5.176524
  S     2.553343  8.856029  5.296975
