16  
    
  C    -4.031542  1.427164  1.686100
  C    -3.973382  5.105351  1.958850
  C    -5.273656  1.360162  1.026847
  C    -5.289586  5.019933  1.279123
  N    -2.996719  1.422574  0.847294
  N    -2.955535  5.427130  1.180888
  N    -5.198433  1.097190 -0.273639
  N    -5.201123  5.209173 -0.024484
  N    -5.784712  1.600033  3.487835
  N    -5.858251  4.881799  3.665419
  S    -6.684368  1.325674  2.101939
  S    -6.707497  4.892155  2.225971
  S    -3.556708  1.135483 -0.623794
  S    -3.639006  5.474803 -0.410752
  S    -4.130192  1.674375  3.390039
  S    -4.237689  5.219281  3.679208
