16  
    
  C    -2.461184  2.531272  1.989806
  C    -2.385826  6.207611  2.095732
  C    -3.734402  2.051022  1.412973
  C    -3.567067  5.624509  1.448529
  N    -1.482338  2.508605  1.096308
  N    -1.370136  6.483270  1.345399
  N    -3.701678  1.872132  0.092238
  N    -3.293677  5.321043  0.206111
  N    -4.139918  2.446801  3.962317
  N    -4.228092  5.838476  3.921624
  S    -4.984077  1.992176  2.617414
  S    -4.985740  5.388303  2.486062
  S    -2.126305  2.188610 -0.367431
  S    -1.695509  5.678896 -0.127096
  S    -2.572583  2.940205  3.686813
  S    -2.673951  6.419319  3.826752
