16  
    
  C     2.980960  5.315390  3.808802
  C     2.637263  8.511187  3.155151
  C     1.672308  5.140665  3.242597
  C     1.370545  8.249418  2.577089
  N     3.974109  5.184995  2.936615
  N     3.666776  8.477750  2.333413
  N     1.637876  4.701210  1.978215
  N     1.409784  8.017113  1.273200
  N     1.305629  5.517373  5.756669
  N     1.033609  9.006611  5.146748
  S     0.425675  5.420329  4.388499
  S     0.167342  8.299057  3.895850
  S     3.211150  4.649024  1.484542
  S     3.013197  8.259215  0.858981
  S     2.934061  5.716931  5.525131
  S     2.679043  9.081691  4.732628
