16  
    
  C     1.960013  4.871649  3.007799
  C     2.338553  8.471266  3.174959
  C     0.868947  4.223895  2.313934
  C     1.168609  8.021557  2.522760
  N     2.934897  5.183747  2.201943
  N     3.341009  8.715112  2.337015
  N     1.052151  3.973433  1.006140
  N     1.234433  7.930428  1.190864
  N     0.236288  4.350145  4.913801
  N     0.458193  8.267657  4.973014
  S    -0.564481  4.124832  3.409791
  S    -0.205040  7.739438  3.525634
  S     2.532001  4.655682  0.664615
  S     2.790707  8.330892  0.733200
  S     1.770375  5.093351  4.799288
  S     2.073888  8.788300  4.866846
