16  
    
  C    -6.003597  0.878058  1.316004
  C    -6.051959  4.322104  1.553072
  C    -7.243311  0.607371  0.646018
  C    -7.188733  3.878910  0.895014
  N    -4.927019  1.022399  0.525323
  N    -5.065187  4.783122  0.753188
  N    -7.067134  0.559186 -0.680990
  N    -7.155335  3.887879 -0.469173
  N    -7.803867  0.271984  3.147922
  N    -7.659698  3.892734  3.479341
  S    -8.603899  0.257374  1.760019
  S    -8.382919  3.324855  2.071635
  S    -5.466196  0.800308 -1.020067
  S    -5.642287  4.489095 -0.781329
  S    -6.194369  0.644442  3.098194
  S    -6.047922  4.189803  3.357633
