16  
    
  C    -0.792967  3.027305  2.462418
  C    -0.802104  6.633094  2.420258
  C    -2.056771  2.748814  1.832973
  C    -1.954381  6.093835  1.715694
  N     0.172195  3.256632  1.592724
  N     0.311528  6.604715  1.723157
  N    -2.030322  2.524108  0.509892
  N    -1.734056  5.788694  0.454484
  N    -2.495590  2.855351  4.386731
  N    -2.608419  6.341770  4.199589
  S    -3.407515  2.628591  3.016187
  S    -3.311204  5.945147  2.706211
  S    -0.433669  2.861334  0.079114
  S    -0.180374  6.192740  0.219684
  S    -0.912825  3.338403  4.138397
  S    -0.954668  6.627825  4.131433
