16  
    
  C    -4.711542  1.013169  1.431541
  C    -4.651572  4.642681  1.961141
  C    -5.950686  0.747560  0.734873
  C    -5.865044  4.272045  1.300170
  N    -3.621765  1.141679  0.627509
  N    -3.609016  4.790480  1.125735
  N    -5.775218  0.651552 -0.592943
  N    -5.746466  4.005202  0.006434
  N    -6.622986  0.885263  3.260750
  N    -6.558349  4.558048  3.782132
  S    -7.323365  0.403832  1.847281
  S    -7.260696  4.088264  2.347642
  S    -4.208873  0.915707 -0.922843
  S    -4.219967  4.472579 -0.396611
  S    -4.917167  1.167424  3.186810
  S    -4.877758  4.918513  3.718357
