16  
    
  C     1.996658  4.365679  3.002428
  C     2.038330  7.865230  3.167757
  C     0.766588  4.003172  2.410716
  C     0.835635  7.525826  2.394920
  N     3.053776  4.351251  2.194385
  N     3.145554  8.052792  2.454986
  N     0.815634  3.719883  1.121024
  N     1.014390  7.481760  1.091103
  N     0.247272  4.291273  4.966753
  N     0.104228  7.906657  4.919358
  S    -0.506502  3.943438  3.533852
  S    -0.556885  7.381175  3.443242
  S     2.457658  3.960029  0.717394
  S     2.695389  7.768822  0.872709
  S     1.906512  4.811335  4.735844
  S     1.729645  8.264027  4.838932
