16  
    
  C    -2.734907  2.642640  2.391464
  C    -2.639952  5.846339  1.986492
  C    -3.802046  1.893450  1.697172
  C    -3.857123  5.481708  1.315425
  N    -1.796579  3.027226  1.545205
  N    -1.605676  6.165252  1.184320
  N    -3.721202  1.810322  0.386254
  N    -3.732589  5.494493 -0.018465
  N    -4.375714  2.044633  4.229567
  N    -4.503813  5.449323  3.794451
  S    -4.981326  1.372642  2.828562
  S    -5.236684  5.044079  2.308854
  S    -2.258425  2.506800  0.020123
  S    -2.137372  6.044167 -0.340290
  S    -2.840397  2.702080  4.091407
  S    -2.982527  6.049982  3.690902
