16  
    
  C     0.960475  3.953089  2.651190
  C     1.443899  7.889553  3.211276
  C    -0.154691  3.477910  1.847999
  C     0.132531  7.639199  2.542780
  N     1.955841  4.336999  1.831132
  N     2.490833  7.913147  2.378620
  N     0.171096  3.213995  0.570539
  N     0.205503  7.560288  1.210065
  N    -0.971496  3.712815  4.272398
  N    -0.363813  7.951149  5.122565
  S    -1.576229  3.248075  2.779986
  S    -1.229777  7.710364  3.709494
  S     1.667979  3.812798  0.308487
  S     1.824186  7.753050  0.876034
  S     0.621238  4.253845  4.302068
  S     1.308526  8.080331  4.984130
