16  
    
  C     2.959602  5.195710  3.976704
  C     2.627720  8.670413  3.114880
  C     1.675092  4.989684  3.350615
  C     1.340393  8.312153  2.620154
  N     3.965753  5.357290  3.120360
  N     3.600670  8.616692  2.224360
  N     1.780024  4.684724  2.055634
  N     1.323837  7.875437  1.378751
  N     1.242742  5.813557  5.674123
  N     0.862114  8.499003  5.140824
  S     0.380606  5.094411  4.463733
  S     0.068415  8.169207  3.678369
  S     3.399318  4.846044  1.670987
  S     2.859137  8.125324  0.765752
  S     2.860606  5.916813  5.499535
  S     2.480400  8.862498  4.890731
