16  
    
  C    -4.152089  1.578838  1.889250
  C    -3.906125  5.129243  1.983479
  C    -5.449894  1.096000  1.331821
  C    -5.127435  4.579652  1.382607
  N    -3.167899  1.643943  1.006131
  N    -2.920441  5.211316  1.110770
  N    -5.370610  0.741386  0.066840
  N    -4.896141  4.111751  0.139332
  N    -5.821534  1.598376  3.824518
  N    -5.664193  5.376569  3.771581
  S    -6.647803  0.958457  2.570190
  S    -6.507754  4.683919  2.478302
  S    -3.790984  1.045102 -0.474902
  S    -3.373516  4.609244 -0.325902
  S    -4.220519  1.861181  3.641945
  S    -4.046042  5.753259  3.576386
