16  
    
  C     1.570587  4.458286  3.391964
  C     1.370168  7.953134  3.101379
  C     0.268081  4.055016  2.934525
  C     0.166760  7.582487  2.454026
  N     2.611214  4.338819  2.516474
  N     2.418167  8.134056  2.311884
  N     0.210324  4.073494  1.590902
  N     0.330103  7.567517  1.146928
  N    -0.116690  4.694755  5.475013
  N    -0.413451  7.774547  4.898609
  S    -1.035603  4.199948  4.124874
  S    -1.180582  7.312857  3.471702
  S     1.752178  4.100366  1.059703
  S     1.866659  7.930845  0.735872
  S     1.558459  4.860058  5.123121
  S     1.200354  8.214510  4.772013
