16  
    
  C     0.093109  3.604018  2.655205
  C     0.334953  7.525788  2.684727
  C    -1.043157  2.977485  2.053050
  C    -0.912248  7.301072  2.012242
  N     1.102876  3.822452  1.828853
  N     1.318711  7.609000  1.799116
  N    -0.938749  2.774041  0.771189
  N    -0.842117  7.044418  0.714110
  N    -1.764435  3.358748  4.468598
  N    -1.475325  7.184045  4.558444
  S    -2.360964  2.518282  3.085288
  S    -2.282242  7.100298  3.072638
  S     0.622315  3.226224  0.329765
  S     0.783529  7.387910  0.251530
  S    -0.282292  4.004396  4.288247
  S     0.135945  7.454481  4.437170
