16  
    
  C     0.183098  3.408251  2.282778
  C     0.194455  7.407797  2.867213
  C    -1.095600  3.202997  1.677179
  C    -0.917038  6.688283  2.242492
  N     1.092019  3.802822  1.439093
  N     1.247685  7.539932  2.051721
  N    -1.054624  3.162348  0.355985
  N    -0.684743  6.433146  0.940632
  N    -1.503451  3.076190  4.197818
  N    -1.673541  7.234918  4.733484
  S    -2.348640  2.942100  2.836076
  S    -2.332570  6.584182  3.379337
  S     0.557123  3.473784 -0.075509
  S     0.858114  7.029352  0.569092
  S     0.119373  3.420779  4.062287
  S    -0.117304  7.800843  4.527736
