16  
    
  C    -5.570853  0.863302  1.495016
  C    -5.470268  4.778428  1.242079
  C    -6.747526  0.439187  0.858107
  C    -6.694042  4.256235  0.688211
  N    -4.521077  0.922803  0.668412
  N    -4.565822  5.053482  0.342342
  N    -6.615092  0.267839 -0.437090
  N    -6.640810  4.120871 -0.625157
  N    -7.349839  0.803617  3.282315
  N    -6.933127  4.301641  3.203178
  S    -8.104316  0.235890  1.906045
  S    -7.857438  3.966579  1.861484
  S    -5.075214  0.602017 -0.816541
  S    -5.137782  4.646549 -1.131622
  S    -5.762763  1.026890  3.159768
  S    -5.471716  5.047960  2.952337
