16  
    
  C     2.884868  5.222261  3.315713
  C     2.936927  9.049927  3.417978
  C     1.667314  4.677131  2.699710
  C     1.786997  8.474538  2.750442
  N     3.810377  5.524617  2.418267
  N     3.832087  9.444426  2.561924
  N     1.826877  4.278882  1.436581
  N     1.779979  8.353717  1.444809
  N     1.393059  4.671367  5.226290
  N     1.159603  8.388089  5.219047
  S     0.489526  4.200593  3.844632
  S     0.591611  7.820385  3.778770
  S     3.281424  5.017842  0.965566
  S     3.337881  8.886466  1.031912
  S     2.787493  5.514082  4.976244
  S     2.628415  9.115911  5.229143
