16  
    
  C    -0.672517  3.157149  2.768214
  C    -1.359057  6.590589  2.603999
  C    -1.899956  2.642755  2.123952
  C    -2.425574  6.000976  1.827252
  N     0.319625  3.300813  1.891920
  N    -0.300065  6.837875  1.875347
  N    -1.745232  2.353436  0.842193
  N    -2.225349  5.931608  0.521469
  N    -2.447189  3.079622  4.599134
  N    -3.190110  6.083845  4.320396
  S    -3.312857  2.789574  3.220827
  S    -3.781613  5.609352  2.860835
  S    -0.155221  2.635890  0.478798
  S    -0.676052  6.602413  0.291538
  S    -0.817936  3.413085  4.430524
  S    -1.611608  6.645729  4.303423
