16  
    
  C    -3.460428  1.599845  2.123579
  C    -3.281057  5.397083  2.084523
  C    -4.683555  1.128710  1.481358
  C    -4.520590  5.024909  1.398018
  N    -2.392460  1.510043  1.329829
  N    -2.261358  5.455281  1.238593
  N    -4.503116  0.915516  0.195620
  N    -4.415214  4.840873  0.082831
  N    -5.269852  1.423013  3.834895
  N    -4.974334  5.354941  3.943824
  S    -6.087393  1.154885  2.418134
  S    -5.803854  4.960713  2.621400
  S    -2.899310  1.108357 -0.139748
  S    -2.790965  5.044681 -0.303715
  S    -3.675923  1.851145  3.827681
  S    -3.317434  5.686741  3.818757
