16  
    
  C     0.919884  3.670494  3.070415
  C     1.157697  7.612272  2.993821
  C    -0.419260  3.476876  2.528177
  C    -0.026079  7.039309  2.350839
  N     1.895057  3.839652  2.110540
  N     2.191593  7.709570  2.156248
  N    -0.352063  3.193809  1.218175
  N     0.203613  6.727293  1.074369
  N    -0.825902  3.473234  5.012130
  N    -0.768676  7.693253  4.726473
  S    -1.706102  3.275491  3.653945
  S    -1.464291  6.998150  3.378844
  S     1.128474  3.549702  0.695682
  S     1.793560  7.096743  0.686652
  S     0.807260  3.949249  4.756537
  S     0.882115  7.954411  4.658200
