16  
    
  C    -5.866683  0.837906  1.548647
  C    -6.105770  4.454568  1.688850
  C    -7.016222  0.143819  0.997166
  C    -7.236195  4.086103  0.948013
  N    -4.877980  1.194310  0.705286
  N    -5.049444  4.653027  0.908467
  N    -6.906309  0.075840 -0.319099
  N    -7.107852  4.076521 -0.382998
  N    -7.598879  0.460985  3.420040
  N    -7.881270  4.066151  3.370554
  S    -8.306617 -0.091274  2.073546
  S    -8.662634  3.983650  1.879448
  S    -5.477731  0.820633 -0.823690
  S    -5.490430  4.464495 -0.673992
  S    -6.041120  1.059051  3.263427
  S    -6.314639  4.722266  3.396408
