16  
    
  C     1.821555  4.309363  3.109442
  C     1.955452  8.002872  3.111648
  C     0.530760  3.956581  2.503355
  C     0.773503  7.533090  2.454745
  N     2.867040  4.197781  2.315646
  N     2.926477  8.320374  2.232093
  N     0.636940  3.858274  1.195065
  N     0.839716  7.504377  1.126181
  N     0.209809  4.301410  5.051821
  N     0.166074  7.496940  4.961008
  S    -0.675746  4.020094  3.688506
  S    -0.528683  7.173319  3.488485
  S     2.260698  4.019585  0.778347
  S     2.360404  7.908358  0.711514
  S     1.851535  4.410044  4.846672
  S     1.788162  7.916697  4.883569
