16  
    
  C    -2.740359  2.654633  2.291695
  C    -2.694291  6.208044  1.999618
  C    -3.835972  1.943951  1.720073
  C    -3.831728  5.664508  1.219591
  N    -1.729461  2.949952  1.475378
  N    -1.739417  6.633072  1.199995
  N    -3.723465  1.746393  0.434132
  N    -3.645312  5.588533 -0.064467
  N    -4.401526  2.152368  4.232681
  N    -4.444747  5.516592  3.675583
  S    -5.066292  1.434907  2.890125
  S    -5.231757  5.273496  2.211541
  S    -2.271787  2.419357 -0.029473
  S    -2.048975  6.149930 -0.310507
  S    -2.891285  2.825726  4.035350
  S    -2.975614  6.305677  3.663507
