16  
    
  C     2.327788  4.763452  3.393936
  C     2.527492  8.663122  3.491139
  C     1.212659  4.228696  2.683790
  C     1.255605  8.306442  2.916109
  N     3.324011  5.140159  2.620746
  N     3.491705  8.763292  2.619008
  N     1.413273  4.165736  1.376714
  N     1.289441  8.223559  1.590002
  N     0.676880  4.267171  5.130262
  N     0.813467  8.661373  5.423360
  S    -0.101599  3.946017  3.712912
  S    -0.008959  8.097056  4.129024
  S     2.934106  4.726072  1.083265
  S     2.824350  8.582438  1.128523
  S     2.173387  4.755698  5.108591
  S     2.443120  8.934626  5.188788
