16  
    
  C    -5.369629  1.189540  1.434026
  C    -5.318031  4.549845  1.565086
  C    -6.647206  0.902198  0.748269
  C    -6.626271  4.206760  1.087885
  N    -4.298189  1.264220  0.616328
  N    -4.396641  4.780656  0.631275
  N    -6.546994  0.600143 -0.551918
  N    -6.686063  3.964380 -0.224045
  N    -7.107975  1.053205  3.389378
  N    -6.937330  4.742421  3.579352
  S    -7.878018  0.697636  1.928993
  S    -7.844661  4.091776  2.335524
  S    -4.887928  0.740537 -0.873104
  S    -5.179777  4.339331 -0.780213
  S    -5.447316  1.350170  3.163828
  S    -5.270815  4.715129  3.305021
