16  
    
  C    -0.498504  3.217846  2.922216
  C    -1.143061  6.783637  2.745266
  C    -1.681917  2.804679  2.277332
  C    -2.214830  6.345055  1.848801
  N     0.582837  3.302360  2.131686
  N    -0.005532  6.985459  2.065463
  N    -1.588442  2.706417  0.947892
  N    -1.861300  6.064904  0.586397
  N    -2.335455  3.379281  4.692975
  N    -3.158179  6.220099  4.301950
  S    -3.085636  2.716489  3.369158
  S    -3.673211  5.902415  2.747720
  S     0.018108  2.911047  0.599050
  S    -0.285374  6.585999  0.450323
  S    -0.737432  3.757326  4.561705
  S    -1.620482  6.783750  4.459074
