16  
    
  C    -1.212516  3.351914  2.123608
  C    -1.079055  7.057046  2.599420
  C    -2.438781  2.784597  1.611286
  C    -2.350010  6.850347  1.988549
  N    -0.335352  3.755005  1.207689
  N    -0.059762  7.206865  1.764594
  N    -2.427822  2.533777  0.316929
  N    -2.291893  6.817172  0.686855
  N    -2.710598  2.920239  4.197782
  N    -2.831554  6.624542  4.488269
  S    -3.619566  2.450750  2.851923
  S    -3.678590  6.614531  3.054187
  S    -0.942982  3.128662 -0.246758
  S    -0.727950  6.845429  0.304336
  S    -1.119341  3.397335  3.880959
  S    -1.170855  7.062124  4.347899
