16  
    
  C    -1.752321  2.258490  1.914023
  C    -1.849296  6.580389  2.048836
  C    -3.043858  2.130321  1.338025
  C    -2.908456  5.673179  1.543663
  N    -0.702017  2.357747  1.079582
  N    -0.734317  6.729791  1.291775
  N    -2.990703  1.977409  0.016022
  N    -2.601805  5.257925  0.339866
  N    -3.434326  2.277149  3.867744
  N    -3.467732  6.004670  3.998714
  S    -4.263209  1.813444  2.518019
  S    -4.293169  5.503715  2.633421
  S    -1.414261  2.263056 -0.438061
  S    -1.183574  5.910325 -0.082653
  S    -1.778829  2.536784  3.641860
  S    -2.151775  7.007023  3.728688
