16  
    
  C     1.625482  4.478414  3.400945
  C     1.352663  8.054193  3.031214
  C     0.324799  4.266755  2.836716
  C     0.258259  7.390898  2.398496
  N     2.631553  4.427463  2.592585
  N     2.347324  8.429914  2.229850
  N     0.358579  3.857027  1.593504
  N     0.385048  7.273468  1.066051
  N    -0.012218  4.612685  5.319892
  N    -0.349469  7.640192  4.889424
  S    -0.868636  4.260827  4.004612
  S    -1.067524  7.136553  3.488930
  S     2.003412  4.017167  1.074540
  S     1.915484  7.966242  0.722008
  S     1.619710  4.869796  5.106143
  S     1.173812  8.205734  4.770564
