16  
    
  C    -2.453085  2.388311  2.181620
  C    -2.666279  5.577684  2.102495
  C    -3.715798  2.068090  1.536993
  C    -3.854923  5.158638  1.418526
  N    -1.417513  2.468453  1.372889
  N    -1.653278  5.957529  1.303926
  N    -3.574804  1.854015  0.250327
  N    -3.795945  5.097141  0.102804
  N    -4.198685  1.872629  4.059262
  N    -4.378243  5.235956  3.909023
  S    -5.077125  1.770908  2.670028
  S    -5.136627  4.989006  2.495490
  S    -2.006915  2.113108 -0.191867
  S    -2.305383  5.651929 -0.235444
  S    -2.622060  2.357611  3.904636
  S    -2.767089  5.737302  3.854391
