16  
    
  C    -1.771268  2.431536  2.039915
  C    -1.897237  6.513758  2.128268
  C    -3.019258  2.132992  1.448027
  C    -2.869898  5.561814  1.635236
  N    -0.776217  2.625372  1.165925
  N    -0.876099  6.697436  1.275812
  N    -2.974391  1.881415  0.143269
  N    -2.683809  5.120222  0.406645
  N    -3.432477  2.092381  4.001931
  N    -3.598569  6.193095  4.125903
  S    -4.350726  1.869493  2.638271
  S    -4.271742  5.350578  2.854784
  S    -1.409142  2.129303 -0.322636
  S    -1.326787  5.930418 -0.133508
  S    -1.847724  2.595582  3.752394
  S    -2.135428  6.934845  3.884616
