16  
    
  C    -1.930106  2.417757  2.565520
  C    -1.700151  5.833761  2.311205
  C    -3.099224  1.966018  1.875877
  C    -2.927971  5.769831  1.595649
  N    -0.859888  2.625230  1.788590
  N    -0.526362  5.860885  1.569530
  N    -2.972051  1.984082  0.542756
  N    -2.742712  5.692477  0.269053
  N    -3.699646  2.116643  4.394165
  N    -3.619104  5.535092  4.145792
  S    -4.452882  1.981251  2.940060
  S    -4.317828  5.334904  2.660718
  S    -1.433388  2.469192  0.221461
  S    -1.110297  5.887440  0.035355
  S    -2.081046  2.438843  4.312651
  S    -1.993482  5.866013  4.011753
