16  
    
  C     1.289675  4.459895  3.168800
  C     1.605397  7.955642  3.111143
  C    -0.087030  4.202946  2.626367
  C     0.345742  7.859117  2.452457
  N     2.260005  4.703694  2.269219
  N     2.649411  7.995786  2.276147
  N    -0.034044  4.002410  1.311596
  N     0.467364  7.643405  1.150801
  N    -0.291764  4.161040  5.163955
  N    -0.234440  8.169118  4.889961
  S    -1.280891  3.861866  3.924581
  S    -1.015296  8.213413  3.432093
  S     1.461594  4.407489  0.826662
  S     2.021007  7.727293  0.698680
  S     1.289057  4.649035  4.889755
  S     1.429468  8.225062  4.816706
