16  
    
  C     0.642262  3.907410  3.184345
  C     1.188325  7.526092  2.837410
  C    -0.479052  3.301317  2.500281
  C     0.040243  7.063421  2.146308
  N     1.797619  4.044013  2.489251
  N     2.269420  7.686105  2.073106
  N    -0.348805  3.311155  1.182128
  N     0.209373  6.839034  0.831772
  N    -1.080686  3.201211  4.969712
  N    -0.770343  7.328413  4.563294
  S    -1.889402  2.931940  3.484126
  S    -1.397223  6.769562  3.150330
  S     1.238896  3.813137  0.874668
  S     1.791787  7.174694  0.487896
  S     0.512761  3.624049  4.869014
  S     0.796743  7.924276  4.525381
