16  
    
  C     2.460485  4.753133  3.476726
  C     2.553781  8.756508  3.435734
  C     1.351354  4.161209  2.767443
  C     1.304118  8.247800  2.969516
  N     3.528628  4.997741  2.690343
  N     3.482316  8.899417  2.456766
  N     1.533035  4.262519  1.456829
  N     1.305555  7.964044  1.656360
  N     0.601262  4.387903  5.186884
  N     0.980662  8.428820  5.435430
  S    -0.119623  3.933100  3.738621
  S     0.064437  8.087766  4.123313
  S     3.061318  4.790778  1.095896
  S     2.769980  8.394280  1.068716
  S     2.121638  4.903148  5.215026
  S     2.570881  8.849665  5.273785
