16  
    
  C     2.947594  5.235776  3.642796
  C     2.877113  8.835154  3.276977
  C     1.610116  5.097981  3.099980
  C     1.640050  8.425978  2.716735
  N     3.912399  4.852521  2.802523
  N     3.840814  8.852973  2.338546
  N     1.581320  4.779730  1.790379
  N     1.611458  7.979691  1.459301
  N     1.320032  5.518393  5.693800
  N     1.042054  8.831670  5.237992
  S     0.398935  5.373975  4.337665
  S     0.300393  8.499026  3.783882
  S     3.176518  4.696186  1.340196
  S     3.166462  8.104565  1.036694
  S     2.949592  5.436291  5.418306
  S     2.734020  9.058952  5.041321
