16  
    
  C     2.193136  4.471848  3.069324
  C     2.037337  8.286160  3.150235
  C     1.060678  3.946224  2.284084
  C     0.867967  7.621107  2.584778
  N     3.330542  4.312971  2.427080
  N     3.082748  8.260386  2.298714
  N     1.280326  3.848164  0.977707
  N     0.929841  7.139079  1.328108
  N     0.241766  4.451828  4.703493
  N     0.062364  8.421447  4.928126
  S    -0.385599  3.848198  3.227823
  S    -0.517337  7.529953  3.599594
  S     2.991695  4.019421  0.815113
  S     2.542527  7.428656  0.946324
  S     1.885820  4.759560  4.754419
  S     1.645161  9.011965  4.715909
