16  
    
  C     1.894220  4.668621  3.261694
  C     1.442573  8.043829  3.018814
  C     0.716901  3.990421  2.730206
  C     0.391538  7.270952  2.348267
  N     2.941647  4.639950  2.421472
  N     2.403102  8.527323  2.227779
  N     0.853544  3.700314  1.408643
  N     0.612521  7.119657  1.031567
  N     0.107553  4.522024  5.219237
  N    -0.310934  7.605845  4.844912
  S    -0.588747  4.071977  3.780005
  S    -0.916022  6.966928  3.426360
  S     2.337453  4.155684  1.002800
  S     2.011836  7.944114  0.715631
  S     1.785927  4.877364  5.039523
  S     1.229900  8.265613  4.729949
