16  
    
  C     0.604102  3.790563  2.771001
  C     0.623185  7.677058  2.726045
  C    -0.662153  3.280626  2.176739
  C    -0.560660  6.974475  2.172629
  N     1.592653  3.891383  1.911804
  N     1.553481  7.893991  1.785532
  N    -0.642019  3.263113  0.837738
  N    -0.576367  6.671149  0.868101
  N    -0.972208  3.434846  4.762851
  N    -1.007600  7.331407  4.687429
  S    -1.822989  3.228394  3.364583
  S    -1.763884  6.631742  3.394393
  S     0.919203  3.744411  0.379415
  S     0.910932  7.290157  0.375077
  S     0.697312  3.593381  4.505497
  S     0.459237  8.032846  4.435990
