16  
    
  C     2.538056  5.048838  3.579466
  C     2.197689  8.776600  3.393655
  C     1.460861  4.226847  3.105335
  C     1.221443  7.905154  2.802751
  N     3.491576  5.236514  2.676321
  N     3.229158  9.054260  2.627529
  N     1.500929  4.020142  1.800669
  N     1.523819  7.551988  1.568438
  N     0.890150  4.779212  5.542843
  N     0.557003  8.367130  5.239425
  S     0.105585  4.240793  4.177814
  S    -0.102447  7.576011  3.927435
  S     2.941340  4.655771  1.230498
  S     2.989772  8.313261  1.153353
  S     2.504708  5.325465  5.276737
  S     1.990456  9.135701  5.074955
