16  
    
  C     1.920179  4.595506  3.288533
  C     1.477970  8.023258  3.020541
  C     0.776736  4.030128  2.705380
  C     0.392240  7.298459  2.318814
  N     2.914974  4.664970  2.437031
  N     2.463240  8.472692  2.224779
  N     0.829729  3.728936  1.432933
  N     0.590571  7.104044  0.984162
  N     0.128916  4.500847  5.188611
  N    -0.303286  7.622747  4.860185
  S    -0.545763  4.018660  3.783767
  S    -0.927844  6.966031  3.436873
  S     2.380349  4.173891  0.968557
  S     2.034397  7.958344  0.726891
  S     1.791428  4.889470  5.020188
  S     1.226763  8.264081  4.734606
