16  
    
  C     1.252072  4.388022  3.105927
  C     1.662424  8.281356  3.002205
  C    -0.033876  4.053943  2.415425
  C     0.403967  8.164049  2.351099
  N     2.260802  4.605186  2.282305
  N     2.677626  8.221590  2.175246
  N     0.038619  3.933252  1.107691
  N     0.524901  7.988766  1.031045
  N    -0.582642  4.165768  4.866242
  N    -0.075357  8.333125  4.879794
  S    -1.383326  3.657112  3.483417
  S    -0.919299  8.062348  3.492340
  S     1.583363  4.432961  0.711114
  S     2.157824  7.904202  0.617916
  S     1.021934  4.482185  4.847116
  S     1.560545  8.583285  4.692128
