16  
    
  C    -3.607476  1.976747  1.797832
  C    -3.890114  5.260700  1.710818
  C    -4.809431  1.422514  1.149900
  C    -5.107219  4.695242  1.092953
  N    -2.645504  2.277281  0.934593
  N    -2.944094  5.635633  0.805851
  N    -4.772419  1.358501 -0.193266
  N    -4.951900  4.583185 -0.211463
  N    -5.164297  1.208114  3.693171
  N    -5.784873  5.153355  3.474319
  S    -6.084360  1.188323  2.374362
  S    -6.470611  4.330852  2.170275
  S    -3.253099  1.954923 -0.644546
  S    -3.430912  5.091543 -0.638590
  S    -3.796990  2.070200  3.535653
  S    -4.200498  5.447422  3.435302
