16  
    
  C     0.188445  3.580317  2.320101
  C     0.181506  7.442316  2.854291
  C    -1.046636  3.150481  1.715004
  C    -0.917437  6.774504  2.244189
  N     1.220566  3.687175  1.446084
  N     1.243470  7.641942  2.129685
  N    -1.102379  3.259401  0.368656
  N    -0.633149  6.329462  1.023217
  N    -1.526811  3.222825  4.258406
  N    -1.577468  7.227597  4.734712
  S    -2.389255  2.981836  2.809486
  S    -2.279320  6.593132  3.317114
  S     0.467663  3.496613 -0.083259
  S     0.867627  7.002224  0.573490
  S     0.096178  3.467307  4.045250
  S    -0.048188  7.866632  4.536784
