16  
    
  C     0.690471  3.999986  2.946826
  C     0.680571  7.567601  2.674883
  C    -0.489909  3.363141  2.374690
  C    -0.490563  6.899842  2.200898
  N     1.777046  4.039643  2.142474
  N     1.627414  7.826316  1.764808
  N    -0.418078  3.316110  1.044677
  N    -0.453439  6.459990  0.953124
  N    -1.040638  3.788550  4.823339
  N    -0.989152  7.403437  4.744929
  S    -1.822346  3.165940  3.434207
  S    -1.759230  6.672909  3.461129
  S     1.205932  3.402450  0.643877
  S     0.962490  7.098112  0.361977
  S     0.473282  4.332069  4.616112
  S     0.558955  7.931187  4.511071
