16  
    
  C     1.836622  4.362603  3.101425
  C     1.970021  8.002358  3.135619
  C     0.570445  3.956683  2.485892
  C     0.783163  7.555372  2.459061
  N     2.886726  4.155055  2.289134
  N     2.925648  8.288271  2.252384
  N     0.665899  3.849144  1.125610
  N     0.883346  7.520550  1.119394
  N     0.220458  4.296313  5.094353
  N     0.148743  7.500581  4.965534
  S    -0.687188  4.009041  3.671781
  S    -0.516431  7.193575  3.476032
  S     2.253160  4.011395  0.780379
  S     2.385629  7.885446  0.707714
  S     1.865270  4.457749  4.844282
  S     1.786177  7.946571  4.884207
