16  
    
  C     1.397763  4.529530  3.311858
  C     1.455365  8.034902  3.078528
  C     0.040474  4.214941  2.909279
  C     0.150975  7.858403  2.414805
  N     2.232237  4.783424  2.307462
  N     2.572196  7.938334  2.329354
  N     0.001291  3.920558  1.621306
  N     0.282620  7.672643  1.091085
  N    -0.072827  4.466474  5.434519
  N    -0.377428  8.013351  4.900172
  S    -1.121584  4.112623  4.157446
  S    -1.231571  7.906836  3.489770
  S     1.488012  4.301002  0.929529
  S     1.947324  7.669799  0.855152
  S     1.479874  4.666484  5.047831
  S     1.289972  8.112691  4.820140
