16  
    
  C     0.953147  4.221497  2.751917
  C     1.607029  8.710903  2.984340
  C    -0.052733  3.585295  1.996505
  C     0.397330  8.218526  2.343792
  N     1.992056  4.477801  1.990973
  N     2.628689  8.918930  2.144320
  N     0.107622  3.668825  0.676024
  N     0.471493  7.900754  1.044753
  N    -0.936987  3.855111  4.385910
  N    -0.138161  8.422783  4.918033
  S    -1.458242  3.247512  2.979856
  S    -0.934129  8.023602  3.483155
  S     1.682995  4.138929  0.446483
  S     2.037823  8.430001  0.687103
  S     0.656490  4.381852  4.457426
  S     1.474363  8.851062  4.750345
