16  
    
  C    -1.492960  2.717030  2.226512
  C    -1.331430  6.743908  2.187884
  C    -2.497105  1.935504  1.518361
  C    -2.625310  6.251761  1.649649
  N    -0.505983  3.010647  1.415314
  N    -0.292820  6.726299  1.366309
  N    -2.265400  1.637927  0.247256
  N    -2.542453  5.855723  0.376310
  N    -3.404225  2.473967  3.910958
  N    -2.921809  6.322402  4.110882
  S    -3.927313  1.698788  2.508583
  S    -3.898910  6.164670  2.807684
  S    -0.820326  2.361400 -0.059495
  S    -1.001620  6.278442 -0.091972
  S    -1.830196  3.016465  3.912318
  S    -1.369689  6.918905  3.876376
