16  
    
  C     1.920078  5.154501  3.067525
  C     2.199601  8.524684  3.147392
  C     0.914097  4.347273  2.475881
  C     1.073457  7.982265  2.452293
  N     2.953764  5.364320  2.262453
  N     3.229163  8.837744  2.384877
  N     1.102412  4.099003  1.182751
  N     1.306297  7.875882  1.131630
  N     0.111151  4.596758  4.763977
  N     0.537009  8.170547  5.019451
  S    -0.556816  4.161187  3.382352
  S    -0.278864  7.732502  3.638348
  S     2.550807  4.737604  0.785282
  S     2.811469  8.506807  0.856169
  S     1.624456  5.156137  4.739625
  S     2.104706  8.606949  4.845192
