16  
    
  C    -2.425740  2.322429  2.158173
  C    -2.659137  5.621276  2.094367
  C    -3.750527  2.107327  1.534464
  C    -3.841678  5.153884  1.427808
  N    -1.394217  2.421525  1.308965
  N    -1.648347  5.887793  1.317638
  N    -3.584458  1.848006  0.238893
  N    -3.771527  5.079056  0.120954
  N    -4.184132  1.905889  4.036382
  N    -4.376537  5.242909  3.915496
  S    -5.039817  1.806030  2.663641
  S    -5.118260  4.995151  2.508492
  S    -1.995613  2.059217 -0.206880
  S    -2.317572  5.652504 -0.255656
  S    -2.617008  2.348220  3.909322
  S    -2.770844  5.731413  3.862635
