16  
    
  C     1.903502  4.548976  3.371834
  C     1.707091  7.678175  3.080343
  C     0.814538  3.935319  2.687151
  C     0.447237  7.416467  2.357356
  N     2.909090  4.797362  2.560549
  N     2.710437  7.901889  2.249621
  N     0.848710  3.950754  1.338908
  N     0.485404  7.388226  1.025337
  N     0.328822  4.013495  5.287901
  N    -0.203021  7.520800  4.873384
  S    -0.498532  3.713558  3.789660
  S    -0.944842  7.379182  3.363231
  S     2.404278  4.632205  0.969197
  S     2.098741  7.785569  0.730817
  S     1.911264  4.422710  5.050124
  S     1.479577  7.660535  4.812940
