16  
    
  C    -1.144531  3.056617  2.194734
  C    -1.054508  6.799287  2.531980
  C    -2.511549  2.864538  1.691735
  C    -2.302804  6.494745  1.943095
  N    -0.206987  3.248789  1.272127
  N    -0.075262  7.015954  1.684583
  N    -2.485503  2.626117  0.391781
  N    -2.334562  6.684945  0.629911
  N    -2.767976  2.991363  4.216373
  N    -2.733164  6.887560  4.457619
  S    -3.711165  2.678260  2.900043
  S    -3.624200  6.546001  3.026221
  S    -0.978418  3.019966 -0.177573
  S    -0.733774  6.981716  0.167175
  S    -1.162853  3.326557  3.953061
  S    -1.113292  7.098810  4.179515
