16  
    
  C     2.876156  5.008888  3.635855
  C     3.025843  8.617274  3.583135
  C     1.619942  5.020873  2.921745
  C     1.829589  8.328743  2.826595
  N     3.953313  4.975870  2.848435
  N     4.065310  8.640267  2.784582
  N     1.738400  4.788340  1.600644
  N     1.906523  8.243479  1.532963
  N     1.162052  5.318180  5.557263
  N     1.044042  8.721563  5.200452
  S     0.327816  5.125452  4.126963
  S     0.416800  8.373059  3.762702
  S     3.366031  4.923120  1.260743
  S     3.495555  8.330781  1.178608
  S     2.820643  5.242267  5.328663
  S     2.639035  9.052028  5.246219
