16  
    
  C    -1.837327  2.328722  2.651898
  C    -1.765410  5.868258  2.345547
  C    -3.055345  1.983956  1.938368
  C    -2.987215  5.632114  1.602313
  N    -0.903286  2.796675  1.819212
  N    -0.684571  6.018108  1.580829
  N    -2.925107  1.833160  0.630463
  N    -2.872120  5.778297  0.294860
  N    -3.736785  2.080680  4.395641
  N    -3.493450  5.626310  4.084703
  S    -4.513668  1.897098  2.928270
  S    -4.326319  5.377621  2.632726
  S    -1.392806  2.395675  0.298691
  S    -1.208501  5.858846  0.003565
  S    -2.084588  2.408758  4.353183
  S    -1.830782  5.811504  4.091526
