16  
    
  C    -5.211916  1.246142  1.757844
  C    -5.083794  5.048912  1.403167
  C    -6.301757  0.555449  1.134759
  C    -6.207331  4.450293  0.729889
  N    -4.124806  1.370249  0.972070
  N    -3.996747  5.093530  0.644726
  N    -6.122626  0.256784 -0.147920
  N    -6.018640  4.190616 -0.552857
  N    -6.946575  0.970620  3.630715
  N    -6.878487  4.589368  3.204126
  S    -7.620341  0.359637  2.241648
  S    -7.550146  4.058093  1.770261
  S    -4.584601  0.670931 -0.465696
  S    -4.415845  4.452977 -0.839187
  S    -5.374257  1.371248  3.531923
  S    -5.393138  5.257084  3.110034
