16  
    
  C    -3.738527  1.870874  2.020412
  C    -3.441200  5.346319  2.004105
  C    -4.726963  1.071567  1.337605
  C    -4.715745  4.817370  1.513992
  N    -2.729450  2.169948  1.237319
  N    -2.457166  5.419705  1.149024
  N    -4.368400  0.757585  0.112067
  N    -4.663454  4.556455  0.197289
  N    -5.611390  1.505369  3.655341
  N    -5.107563  5.298635  4.014654
  S    -6.082390  0.616427  2.242281
  S    -5.981155  4.933691  2.679396
  S    -2.951718  1.550880 -0.226915
  S    -3.109160  4.795808 -0.271848
  S    -4.067502  2.197998  3.694180
  S    -3.525327  5.734479  3.640633
