16  
    
  C    -4.442156  1.603659  1.938485
  C    -4.662833  5.055438  1.714205
  C    -5.610080  1.045288  1.346410
  C    -5.785291  4.449531  1.088668
  N    -3.412652  1.775765  1.117428
  N    -3.664195  5.306075  0.872425
  N    -5.486674  0.820263  0.063308
  N    -5.697587  4.354446 -0.246380
  N    -6.020221  1.127830  3.932528
  N    -6.361843  4.681741  3.535749
  S    -6.825780  0.658710  2.534277
  S    -7.123123  4.108512  2.194339
  S    -3.932881  1.243399 -0.409619
  S    -4.136224  4.870357 -0.658956
  S    -4.431779  1.799811  3.705614
  S    -4.816950  5.270060  3.442750
