16  
    
  C    -0.465855  3.220743  2.936096
  C    -1.112696  6.831562  2.739133
  C    -1.736806  2.922016  2.251522
  C    -2.182453  6.285246  1.932363
  N     0.578942  3.344932  2.127927
  N     0.043363  6.965655  2.120578
  N    -1.521456  2.622819  0.970957
  N    -1.828537  6.086881  0.679921
  N    -2.368856  3.416671  4.769054
  N    -3.057018  6.260869  4.223841
  S    -3.023054  2.725530  3.358133
  S    -3.656724  5.952498  2.713032
  S     0.070151  3.009950  0.628333
  S    -0.233615  6.612826  0.520905
  S    -0.692823  3.772358  4.567447
  S    -1.518991  6.849094  4.410767
