16  
    
  C     0.120592  3.567312  2.292787
  C     0.179909  7.259013  2.922270
  C    -1.046483  3.009216  1.691087
  C    -1.022922  6.776460  2.247015
  N     1.217096  3.655127  1.522282
  N     1.172791  7.469277  2.113234
  N    -0.959706  2.957757  0.359507
  N    -0.895652  6.625275  0.951180
  N    -1.491750  2.853905  4.235435
  N    -1.724210  7.197395  4.614918
  S    -2.386024  2.824896  2.809282
  S    -2.341763  6.500498  3.206496
  S     0.583694  3.501715 -0.042018
  S     0.674842  7.002403  0.567216
  S     0.108778  3.403144  4.038278
  S    -0.111430  7.700173  4.552532
