16  
    
  C    -2.450934  2.430454  1.967523
  C    -2.444223  6.284049  2.127612
  C    -3.678101  2.004228  1.414438
  C    -3.547529  5.643498  1.426657
  N    -1.416852  2.521159  1.114098
  N    -1.320950  6.401538  1.350271
  N    -3.670343  1.880622  0.088919
  N    -3.265614  5.168823  0.206411
  N    -4.073398  2.419624  3.977671
  N    -4.198112  5.815117  3.970909
  S    -4.946456  2.016447  2.597347
  S    -4.903296  5.429588  2.512123
  S    -2.094730  2.177155 -0.408689
  S    -1.725590  5.666917 -0.049535
  S    -2.487015  2.935600  3.649315
  S    -2.602203  6.284709  3.822320
