16  
    
  C     0.641257  3.727229  3.200901
  C     1.089771  7.580418  2.746551
  C    -0.515811  3.394762  2.385298
  C    -0.024043  7.033448  2.083458
  N     1.655407  4.096780  2.428174
  N     2.184242  7.674473  2.004822
  N    -0.247605  3.233255  1.110198
  N     0.169760  6.884207  0.779144
  N    -1.195527  3.118675  4.868560
  N    -0.721857  7.208132  4.599561
  S    -1.843201  2.853763  3.375494
  S    -1.362349  6.710128  3.116042
  S     1.241027  3.860093  0.898522
  S     1.780537  7.243926  0.476254
  S     0.397588  3.669194  4.950969
  S     0.809129  7.846684  4.460362
