16  
    
  C    -3.358316  1.857378  2.022520
  C    -3.084137  5.438094  2.128630
  C    -4.605979  1.464585  1.471426
  C    -4.227771  4.880658  1.433622
  N    -2.435347  2.061525  1.069000
  N    -2.116125  5.710552  1.280462
  N    -4.615606  1.324369  0.153709
  N    -4.086738  4.690268  0.107925
  N    -4.903970  1.340521  4.060074
  N    -4.956748  5.235573  3.852524
  S    -5.786661  1.054990  2.670654
  S    -5.566932  4.528323  2.438100
  S    -3.094317  1.748799 -0.386116
  S    -2.509013  5.117022 -0.217879
  S    -3.307167  1.889025  3.787679
  S    -3.333807  5.816421  3.808400
