16  
    
  C    -3.152319  1.725096  2.027559
  C    -3.149922  5.649330  2.097450
  C    -4.372880  1.398782  1.330784
  C    -4.312373  5.059564  1.477920
  N    -2.124529  1.962801  1.232906
  N    -2.148197  5.891352  1.291161
  N    -4.256808  1.344427  0.027197
  N    -4.127208  4.767699  0.184072
  N    -5.090349  1.598667  3.761423
  N    -4.801355  5.038533  4.068018
  S    -5.780978  1.251980  2.251583
  S    -5.566604  4.624747  2.605726
  S    -2.677922  1.717962 -0.312117
  S    -2.718230  5.419867 -0.275218
  S    -3.428862  1.958107  3.688237
  S    -3.382573  5.843311  3.823962
