16  
    
  C    -1.786741  2.394666  2.330068
  C    -1.861579  6.245699  2.283795
  C    -2.946861  1.864439  1.692491
  C    -3.049314  5.651649  1.734997
  N    -0.820271  2.661889  1.485104
  N    -0.898282  6.417246  1.425278
  N    -2.886698  1.752965  0.375779
  N    -2.999577  5.441506  0.433006
  N    -3.592078  2.183634  4.150546
  N    -3.472172  5.913964  4.239948
  S    -4.408640  1.740793  2.761638
  S    -4.248529  5.290864  2.894800
  S    -1.325661  2.194133 -0.008500
  S    -1.456918  5.907157 -0.095231
  S    -1.992544  2.590408  4.042529
  S    -1.968413  6.660256  4.020653
