16  
    
  C     3.112124  5.058436  3.447189
  C     3.319276  8.774582  3.721952
  C     1.855102  4.547493  2.886797
  C     1.963215  8.621339  3.229895
  N     4.140699  5.068054  2.613994
  N     4.213532  8.617689  2.801213
  N     1.952488  4.363479  1.562277
  N     1.802594  8.270617  1.950910
  N     1.453393  5.002291  5.431124
  N     1.821013  9.389928  5.685088
  S     0.545922  4.661541  4.095262
  S     0.796510  9.077702  4.474901
  S     3.554070  4.740665  1.138818
  S     3.463406  8.189183  1.376896
  S     3.022332  5.342927  5.138429
  S     3.406751  9.270275  5.402936
