16  
    
  C     0.301143  3.511242  2.860070
  C     0.398242  7.610068  2.789228
  C    -0.930213  3.300684  2.167710
  C    -0.927524  7.471911  2.232714
  N     1.313092  3.981606  2.125090
  N     1.387540  7.672246  1.875152
  N    -0.731835  3.204595  0.820379
  N    -0.992089  7.543415  0.910567
  N    -1.500620  3.086787  4.699679
  N    -1.265319  7.514179  4.747560
  S    -2.214637  2.810474  3.208323
  S    -2.212448  7.426854  3.400095
  S     0.806217  3.694452  0.575794
  S     0.528333  7.542195  0.398865
  S     0.136666  3.461709  4.642929
  S     0.386760  7.575260  4.554326
