16  
    
  C    -3.599158  1.702040  2.080082
  C    -3.315423  5.353247  2.055853
  C    -4.650035  1.058068  1.403582
  C    -4.577208  4.954415  1.539789
  N    -2.510636  1.835553  1.310231
  N    -2.291114  5.296828  1.186959
  N    -4.414323  0.804145  0.113586
  N    -4.568798  4.665671  0.238880
  N    -5.513622  1.463049  3.804979
  N    -5.042851  5.356577  3.966820
  S    -6.124500  0.945605  2.385922
  S    -5.898346  4.932659  2.641635
  S    -2.823440  1.267952 -0.173954
  S    -3.030932  4.961847 -0.302268
  S    -3.992510  1.939833  3.716579
  S    -3.407877  5.728032  3.779753
