16  
    
  C     3.087335  5.146055  3.406909
  C     3.363159  9.071143  3.474132
  C     1.950878  4.610829  2.759304
  C     2.089824  8.717170  2.951828
  N     4.089122  5.544087  2.607285
  N     4.329969  9.102262  2.518580
  N     2.178245  4.268909  1.466442
  N     2.110515  8.444394  1.635005
  N     1.180034  4.908559  5.131953
  N     1.659606  8.820458  5.520708
  S     0.620650  4.193710  3.705697
  S     0.829969  8.612902  4.072489
  S     3.582200  4.937389  1.117310
  S     3.590514  8.641464  1.108768
  S     2.758251  5.452875  5.096629
  S     3.308615  9.271320  5.249585
