16  
    
  C    -3.159800  1.894229  1.878439
  C    -3.138905  5.808243  2.086827
  C    -4.314093  1.455153  1.108700
  C    -4.351223  5.305346  1.526242
  N    -2.109877  2.126651  1.093017
  N    -2.132019  6.037870  1.189152
  N    -4.055177  1.175621 -0.158285
  N    -4.288901  5.190725  0.213927
  N    -5.109174  1.685134  3.442601
  N    -4.801601  5.391583  4.062996
  S    -5.725127  1.139431  1.982663
  S    -5.657753  5.031297  2.668796
  S    -2.471934  1.683395 -0.434972
  S    -2.850753  5.768154 -0.345902
  S    -3.502945  2.125470  3.564708
  S    -3.257185  5.782696  3.806237
