16  
    
  C     0.426488  3.658039  2.963535
  C     0.458634  7.582992  2.888178
  C    -0.839195  3.597155  2.385750
  C    -0.835586  7.251278  2.324957
  N     1.450899  3.838156  2.121626
  N     1.466113  7.541942  2.016390
  N    -0.870635  3.694680  1.077833
  N    -0.854074  7.142416  1.011568
  N    -1.182987  3.047585  4.881844
  N    -1.260629  7.588272  4.803542
  S    -2.119496  3.219086  3.540375
  S    -2.102518  7.157821  3.474225
  S     0.786747  3.944826  0.606414
  S     0.796932  7.319597  0.546523
  S     0.481878  3.332816  4.656681
  S     0.385561  7.834872  4.653094
