16  
    
  C    -4.869606  1.269697  1.486165
  C    -4.730543  4.843391  1.916409
  C    -5.984747  0.662351  0.819152
  C    -5.907431  4.275994  1.279665
  N    -3.806805  1.415575  0.737233
  N    -3.680683  5.030882  1.121513
  N    -5.773869  0.391650 -0.480532
  N    -5.680398  3.925898  0.007965
  N    -6.598063  0.755270  3.369711
  N    -6.405515  4.363864  3.797842
  S    -7.236472  0.274759  1.915672
  S    -7.209087  3.972426  2.435958
  S    -4.245103  0.853219 -0.736593
  S    -4.112319  4.335505 -0.293425
  S    -4.971359  1.280847  3.246356
  S    -4.889291  5.032202  3.598047
