16  
    
  C     3.340009  5.397071  3.556359
  C     3.658607  9.320899  3.502172
  C     2.148264  4.854422  2.871209
  C     2.532604  8.700233  2.902861
  N     4.347140  5.571152  2.665672
  N     4.617975  9.500640  2.563713
  N     2.199639  4.793147  1.542039
  N     2.559522  8.426355  1.606777
  N     1.603124  4.927371  5.447436
  N     1.951035  8.733638  5.289929
  S     0.848432  4.528769  4.039167
  S     1.235420  8.135156  3.920179
  S     3.757576  5.138655  1.108490
  S     3.958518  8.942409  1.103092
  S     3.223457  5.351749  5.301954
  S     3.428639  9.425056  5.205473
