16  
    
  C     2.897530  5.336400  3.545384
  C     2.955668  8.719691  3.419157
  C     1.751578  4.794904  2.855721
  C     1.842445  8.127768  2.717899
  N     3.979659  5.465259  2.772290
  N     3.900829  9.170097  2.636277
  N     1.875958  4.767172  1.539131
  N     1.958955  8.082771  1.418801
  N     1.082465  5.030904  5.268401
  N     1.036595  8.374569  5.213512
  S     0.419869  4.510460  3.822933
  S     0.458800  7.934587  3.670437
  S     3.402898  5.286252  1.223824
  S     3.472216  8.743699  1.067862
  S     2.706176  5.339037  5.259372
  S     2.641151  8.910719  5.157037
