16  
    
  C    -2.608969  2.062341  2.012411
  C    -2.536138  5.845953  2.127768
  C    -3.852660  1.887886  1.352514
  C    -3.706059  5.350208  1.390617
  N    -1.530970  2.184742  1.224287
  N    -1.466403  5.814634  1.345406
  N    -3.762311  1.753913  0.032489
  N    -3.579676  5.071765  0.115571
  N    -4.453218  1.996665  3.797418
  N    -4.449675  5.839337  3.806079
  S    -5.230650  1.912629  2.372837
  S    -5.139507  5.290535  2.382618
  S    -2.227341  2.088455 -0.336060
  S    -1.926889  5.370036 -0.161432
  S    -2.866474  2.445113  3.724393
  S    -2.839383  6.148419  3.821288
