16  
    
  C     1.897584  4.209887  3.176001
  C     1.808000  7.880189  3.051380
  C     0.610238  3.881621  2.629013
  C     0.622848  7.446309  2.434656
  N     2.937517  4.330076  2.303148
  N     2.790347  8.233599  2.270985
  N     0.663626  3.907089  1.292169
  N     0.784471  7.416897  1.120567
  N     0.119799  4.240025  5.194754
  N     0.196500  7.426486  4.986351
  S    -0.760462  4.057494  3.714767
  S    -0.635951  7.089456  3.588125
  S     2.180401  4.106206  0.829399
  S     2.204829  8.079025  0.726104
  S     1.815532  4.200840  4.961311
  S     1.841640  7.829868  4.759701
