16  
    
  C     1.419721  4.610413  3.368173
  C     1.390044  7.993451  3.142416
  C     0.092450  4.078392  2.916371
  C     0.175940  7.846170  2.452117
  N     2.386192  4.550032  2.445651
  N     2.444254  7.976721  2.339277
  N     0.019671  3.918710  1.591891
  N     0.302545  7.755203  1.137646
  N    -0.121614  4.592940  5.469430
  N    -0.423275  7.969094  4.945438
  S    -1.123952  4.143419  4.182284
  S    -1.201633  7.716698  3.470009
  S     1.515501  4.295767  1.000762
  S     1.914933  7.705894  0.755443
  S     1.575933  4.717904  5.066443
  S     1.224809  8.139592  4.834142
