16  
    
  C     1.878348  4.252218  3.315492
  C     1.808734  7.829558  3.049813
  C     0.624746  3.974862  2.712196
  C     0.512477  7.559501  2.452980
  N     2.935507  4.345450  2.540827
  N     2.819848  7.988273  2.153393
  N     0.664081  4.236324  1.425265
  N     0.458383  7.601473  1.117830
  N     0.167422  3.928161  5.225287
  N     0.098164  7.313713  4.960127
  S    -0.727445  3.822402  3.809169
  S    -0.767192  7.091683  3.525897
  S     2.345918  4.284146  0.955451
  S     2.049364  7.954038  0.687100
  S     1.824610  4.243026  5.031139
  S     1.708034  7.716828  4.789478
