16  
    
  C    -2.754246  2.264417  1.961579
  C    -2.627258  5.801640  2.092258
  C    -3.959789  2.009686  1.273478
  C    -3.835170  5.386765  1.434917
  N    -1.669047  2.352123  1.192443
  N    -1.537110  5.851749  1.309840
  N    -3.828206  1.973257 -0.059956
  N    -3.618318  5.060592  0.173238
  N    -4.572279  1.889734  3.797478
  N    -4.471164  5.695487  3.891556
  S    -5.338066  1.720303  2.305880
  S    -5.242276  5.299307  2.478547
  S    -2.155601  2.107152 -0.372760
  S    -2.023138  5.424394 -0.201006
  S    -2.957845  2.443580  3.742848
  S    -2.852738  6.208103  3.694028
