16  
    
  C    -4.461187  1.296987  1.875549
  C    -4.667824  4.784803  1.635496
  C    -5.666141  0.870819  1.222726
  C    -5.787599  4.375933  0.850529
  N    -3.502108  1.729881  1.035217
  N    -3.604756  5.176219  0.964174
  N    -5.484741  0.763631 -0.094319
  N    -5.588416  4.519766 -0.446415
  N    -6.101134  0.757214  3.784121
  N    -6.490369  3.923044  3.301482
  S    -6.839184  0.284674  2.418784
  S    -7.142279  3.758339  1.787236
  S    -4.030553  1.349087 -0.538714
  S    -3.977883  5.036479 -0.699790
  S    -4.514538  1.159939  3.729216
  S    -4.999481  4.559246  3.352058
