16  
    
  C     0.536331  3.565735  2.763801
  C     0.762399  7.641582  2.649561
  C    -0.650150  3.077017  2.072293
  C    -0.450578  7.204871  2.056266
  N     1.621010  3.854143  1.983482
  N     1.678684  8.030197  1.802234
  N    -0.511075  3.262845  0.753328
  N    -0.366486  7.197654  0.747346
  N    -1.249064  3.283254  4.601860
  N    -0.801664  6.814577  4.493025
  S    -2.012879  2.797098  3.152754
  S    -1.656737  6.568371  3.077811
  S     1.063015  3.568093  0.460391
  S     1.067660  7.783514  0.252048
  S     0.310694  3.646924  4.467846
  S     0.648668  7.629153  4.418181
