16  
    
  C    -1.828993  2.533103  2.513784
  C    -1.671440  5.801163  2.421865
  C    -3.088264  2.221231  1.793550
  C    -2.902817  5.539609  1.616307
  N    -0.804094  2.582753  1.674718
  N    -0.604105  6.088348  1.652010
  N    -3.004350  2.348391  0.479274
  N    -2.717615  5.538677  0.309318
  N    -3.646827  2.299311  4.311431
  N    -3.616312  5.694269  4.050807
  S    -4.451980  1.983219  2.891819
  S    -4.350890  5.308134  2.546034
  S    -1.399621  2.381824  0.133901
  S    -1.127369  5.909177  0.121981
  S    -1.990253  2.514130  4.181061
  S    -1.963950  5.964903  4.122474
