16  
    
  C     1.901036  4.070591  3.190622
  C     1.937838  7.985960  3.080943
  C     0.600785  4.043308  2.591909
  C     0.699723  7.500749  2.444047
  N     2.864778  4.369910  2.303644
  N     2.913740  8.329004  2.245047
  N     0.594398  3.859684  1.249906
  N     0.734452  7.409560  1.102154
  N     0.191682  4.299159  5.058208
  N     0.221100  7.482753  4.944961
  S    -0.728746  4.041207  3.727023
  S    -0.596826  7.113378  3.544780
  S     2.234456  4.041102  0.811532
  S     2.289875  8.003934  0.733349
  S     1.802827  4.290185  4.857949
  S     1.806999  7.855058  4.829743
