16  
    
  C    -2.340474  1.931001  2.086480
  C    -2.686023  5.696333  2.072998
  C    -3.673677  1.876720  1.480794
  C    -3.873390  5.269730  1.419267
  N    -1.336010  1.911199  1.181273
  N    -1.631430  5.818137  1.272802
  N    -3.655116  1.681277  0.156003
  N    -3.765762  5.240452  0.088659
  N    -4.059465  2.281792  3.971347
  N    -4.324064  5.498346  3.913501
  S    -5.006218  2.072299  2.639179
  S    -5.099306  4.997451  2.526041
  S    -2.029040  1.829863 -0.297106
  S    -2.123545  5.473210 -0.220153
  S    -2.449258  2.353208  3.728778
  S    -2.712807  5.761214  3.802088
