16  
    
  C     0.927366  3.656724  3.055769
  C     1.148489  7.633644  3.002393
  C    -0.413827  3.466345  2.510503
  C    -0.046943  7.039495  2.380165
  N     1.912507  3.851619  2.117821
  N     2.189606  7.704227  2.165077
  N    -0.362907  3.194758  1.211187
  N     0.201980  6.738027  1.102191
  N    -0.803226  3.506492  5.007991
  N    -0.776418  7.685776  4.745229
  S    -1.698534  3.286880  3.654460
  S    -1.454829  7.005238  3.387541
  S     1.126687  3.527452  0.682240
  S     1.783177  7.088416  0.680770
  S     0.814990  3.980649  4.737951
  S     0.887151  7.953322  4.663177
