16  
    
  C    -0.389468  3.123798  2.712571
  C    -0.355351  7.016223  2.436138
  C    -1.571357  2.745052  2.025782
  C    -1.441862  6.299218  1.968999
  N     0.608086  3.395877  1.882598
  N     0.674309  7.106630  1.588278
  N    -1.377851  2.449625  0.735131
  N    -1.348425  5.867143  0.708360
  N    -2.079610  2.926189  4.541279
  N    -2.020016  6.884297  4.398595
  S    -2.865014  2.411440  3.187218
  S    -2.692567  5.991578  3.169330
  S     0.196268  2.947529  0.382469
  S     0.122444  6.458373  0.189090
  S    -0.582596  3.600295  4.381246
  S    -0.495082  7.520808  4.085343
