16  
    
  C    -0.319252  3.240920  2.533672
  C    -0.252240  7.015994  2.287366
  C    -1.592564  2.799583  1.992432
  C    -1.464779  6.607265  1.714236
  N     0.603683  3.492545  1.630618
  N     0.769072  7.155567  1.456546
  N    -1.573762  2.674373  0.680365
  N    -1.472710  6.469800  0.389310
  N    -2.054199  3.200575  4.533666
  N    -1.950002  6.724162  4.217715
  S    -2.908266  2.851754  3.091924
  S    -2.817561  6.541676  2.815011
  S    -0.030926  3.004479  0.164866
  S     0.091433  6.868145 -0.076410
  S    -0.427956  3.479560  4.250422
  S    -0.354670  7.162099  4.072455
