16  
    
  C    -2.744681  2.658276  2.327298
  C    -2.771643  6.027665  1.939563
  C    -3.908958  1.996179  1.720773
  C    -3.897681  5.516455  1.175251
  N    -1.777994  3.029865  1.489544
  N    -1.639400  6.296544  1.285192
  N    -3.701956  1.807714  0.437910
  N    -3.625512  5.525755 -0.159340
  N    -4.380410  2.110687  4.243043
  N    -4.480445  5.417352  3.755151
  S    -5.035903  1.352558  2.905459
  S    -5.176752  5.204957  2.290655
  S    -2.235962  2.446096 -0.002119
  S    -2.126022  6.168350 -0.347347
  S    -2.873212  2.771274  4.062737
  S    -3.004247  6.202291  3.681482
