16  
    
  C    -5.548014  0.872473  1.427576
  C    -5.365494  5.005648  1.185056
  C    -6.790031  0.431587  0.770303
  C    -6.539918  4.368913  0.684916
  N    -4.486455  1.108483  0.638357
  N    -4.386541  5.248900  0.334221
  N    -6.664539  0.244298 -0.524918
  N    -6.489356  4.145909 -0.622845
  N    -7.367553  0.889570  3.265167
  N    -6.789590  4.365890  3.265989
  S    -8.077054  0.169440  1.919430
  S    -7.705492  3.888806  1.972821
  S    -5.030133  0.615576 -0.910875
  S    -4.975503  4.651637 -1.117443
  S    -5.654410  1.019779  3.230848
  S    -5.319993  5.011464  2.908262
