16  
    
  C     0.221800  3.630635  2.809778
  C     0.305525  7.483798  2.677399
  C    -0.894616  3.060096  2.115224
  C    -0.998664  7.379209  2.032046
  N     1.246836  4.010485  2.018979
  N     1.366504  7.442671  1.863053
  N    -0.698485  2.925437  0.823431
  N    -0.929292  7.467693  0.692689
  N    -1.574993  3.000655  4.578480
  N    -1.382428  7.433029  4.675126
  S    -2.321746  2.710051  3.103278
  S    -2.285804  7.316554  3.311576
  S     0.774495  3.526281  0.485911
  S     0.638795  7.617333  0.349751
  S    -0.049499  3.630723  4.527895
  S     0.240536  7.590644  4.456155
