16  
    
  C     1.888310  4.680596  3.264337
  C     1.429604  8.051982  3.018657
  C     0.703602  3.987225  2.731740
  C     0.399206  7.268412  2.359876
  N     2.950132  4.639019  2.421013
  N     2.379178  8.539971  2.227753
  N     0.855110  3.691603  1.407838
  N     0.619086  7.127728  1.055102
  N     0.108416  4.528726  5.226275
  N    -0.311942  7.599755  4.835931
  S    -0.609241  4.088667  3.781794
  S    -0.913773  6.967147  3.423278
  S     2.325286  4.147641  1.008685
  S     2.004946  7.938919  0.710143
  S     1.781649  4.873823  5.043887
  S     1.229981  8.263990  4.727870
