16  
    
  C    -4.874320  1.284584  1.459962
  C    -4.747769  4.826334  1.929239
  C    -5.970874  0.657616  0.829121
  C    -5.909784  4.253219  1.303087
  N    -3.797178  1.394070  0.711187
  N    -3.709762  5.010407  1.138114
  N    -5.766310  0.455410 -0.484285
  N    -5.698760  3.955546  0.012337
  N    -6.597756  0.752334  3.358012
  N    -6.398023  4.372172  3.785686
  S    -7.240055  0.291743  1.906135
  S    -7.204953  3.990293  2.435530
  S    -4.237748  0.847657 -0.747961
  S    -4.102332  4.337721 -0.287926
  S    -4.961212  1.259442  3.221313
  S    -4.874066  5.025124  3.603950
