16  
    
  C     2.274450  4.518085  3.231901
  C     2.257829  8.962334  3.503750
  C     1.005163  4.328646  2.578361
  C     1.034756  8.507320  2.854316
  N     3.219444  4.971743  2.410195
  N     3.249169  9.026403  2.640681
  N     1.037108  4.463363  1.248563
  N     1.144842  8.186319  1.585269
  N     0.607385  4.249253  5.190485
  N     0.433534  8.514112  5.318966
  S    -0.239827  3.865882  3.694882
  S    -0.325416  8.291392  3.842773
  S     2.592397  4.897189  0.880267
  S     2.663788  8.600170  1.075781
  S     2.237109  4.769099  4.928569
  S     2.027238  9.069897  5.235478
