16  
    
  C     0.571686  3.714700  2.962943
  C     0.602231  7.553366  2.850124
  C    -0.798308  3.566334  2.432682
  C    -0.584080  7.105755  2.054813
  N     1.532462  3.861692  2.038930
  N     1.737800  7.642185  2.185788
  N    -0.779791  3.328223  1.105323
  N    -0.264182  6.868917  0.793833
  N    -1.109291  3.671443  4.949082
  N    -1.359939  7.267624  4.524544
  S    -2.008294  3.289058  3.594978
  S    -2.023094  6.939099  2.985456
  S     0.830796  3.444981  0.556047
  S     1.357401  7.259928  0.644046
  S     0.494273  4.031455  4.668355
  S     0.282229  7.700960  4.550521
