16  
    
  C    -5.504862  0.988170  1.355649
  C    -5.178142  5.045215  1.267160
  C    -6.683206  0.386062  0.802283
  C    -6.318595  4.269569  0.706210
  N    -4.421148  1.177698  0.574941
  N    -4.276759  5.371081  0.318483
  N    -6.608813  0.214423 -0.541416
  N    -6.306908  4.064818 -0.645667
  N    -7.275650  0.613218  3.231942
  N    -6.659148  4.371182  3.285302
  S    -8.001546  0.187483  1.865315
  S    -7.464507  3.884236  1.931726
  S    -5.080249  0.750479 -0.922361
  S    -4.889000  4.765936 -1.127585
  S    -5.707534  1.099506  3.099887
  S    -5.211766  5.173943  3.073955
