16  
    
  C    -2.178411  2.441042  1.946512
  C    -2.145910  5.830706  2.247778
  C    -3.482991  2.101806  1.356513
  C    -3.388659  5.412204  1.586768
  N    -1.256713  2.606454  1.012561
  N    -1.164851  5.902852  1.398766
  N    -3.421930  1.729010  0.067649
  N    -3.339876  5.375396  0.270741
  N    -3.871102  2.367636  3.916918
  N    -4.007130  5.929171  4.036202
  S    -4.719173  1.979141  2.548477
  S    -4.724723  5.429719  2.628188
  S    -1.856817  2.050233 -0.397808
  S    -1.742370  5.741451 -0.170960
  S    -2.253089  2.649116  3.714478
  S    -2.392970  6.142749  3.924791
