16  
    
  C     0.102717  3.337476  2.433581
  C    -0.038589  7.186884  2.694053
  C    -1.125461  2.970723  1.763396
  C    -1.185196  6.701647  2.042803
  N     1.143395  3.526105  1.673630
  N     1.038507  7.464635  1.941760
  N    -0.928517  2.833458  0.467743
  N    -1.074089  6.716788  0.686956
  N    -1.679849  2.954689  4.241361
  N    -1.747293  6.781918  4.606876
  S    -2.375194  2.362727  2.834384
  S    -2.554114  6.473971  3.146758
  S     0.606939  3.339360  0.111725
  S     0.524326  7.102008  0.437353
  S    -0.148395  3.495048  4.167555
  S    -0.157072  7.276457  4.456637
