16  
    
  C    -2.220852  2.473447  1.950058
  C    -2.133938  5.843012  2.232813
  C    -3.463366  2.110814  1.353618
  C    -3.383736  5.398386  1.592769
  N    -1.279396  2.591694  1.032545
  N    -1.174975  5.992004  1.369448
  N    -3.454969  1.725822  0.060335
  N    -3.337234  5.365565  0.266269
  N    -3.886593  2.375994  3.938356
  N    -4.043132  5.933749  4.038741
  S    -4.741273  1.986901  2.548765
  S    -4.771688  5.429038  2.621981
  S    -1.892371  2.054866 -0.410059
  S    -1.733697  5.718802 -0.169667
  S    -2.264477  2.676073  3.706267
  S    -2.413466  6.147283  3.939713
