16  
    
  C    -5.360234  1.167039  1.430550
  C    -5.297144  4.558604  1.559271
  C    -6.636645  0.895672  0.731640
  C    -6.625002  4.197258  1.078891
  N    -4.302520  1.266592  0.627898
  N    -4.381175  4.793355  0.628159
  N    -6.557920  0.572842 -0.564932
  N    -6.693699  3.975361 -0.227986
  N    -7.086437  1.043514  3.376089
  N    -6.951335  4.705912  3.606761
  S    -7.881548  0.677473  1.924093
  S    -7.849670  4.107296  2.336854
  S    -4.879757  0.748819 -0.885041
  S    -5.195350  4.341741 -0.780912
  S    -5.448039  1.357846  3.171669
  S    -5.292439  4.717638  3.308550
