16  
    
  C    -1.829158  2.475062  2.422743
  C    -1.725542  5.987630  2.376082
  C    -3.086233  2.378325  1.752663
  C    -2.894938  5.545933  1.683501
  N    -0.763232  2.608122  1.633038
  N    -0.622385  6.150076  1.703959
  N    -2.998194  2.259787  0.434299
  N    -2.657731  5.391988  0.422032
  N    -3.618223  2.364281  4.295937
  N    -3.654112  5.765200  4.115451
  S    -4.362674  2.024931  2.850282
  S    -4.317551  5.330114  2.650146
  S    -1.346308  2.377353  0.103721
  S    -1.116578  5.954288  0.095697
  S    -1.991810  2.545413  4.190751
  S    -2.015732  5.964878  4.058399
