16  
    
  C     1.950287  5.035400  3.033716
  C     2.251981  8.457818  3.110725
  C     0.838186  4.372290  2.405190
  C     1.089717  7.947854  2.461793
  N     2.959491  5.336938  2.245171
  N     3.283200  8.839577  2.346026
  N     1.098462  3.993511  1.188942
  N     1.258650  7.904962  1.118266
  N     0.121155  4.500745  4.842488
  N     0.539931  8.197145  5.003582
  S    -0.536021  4.172511  3.376497
  S    -0.264794  7.736283  3.630284
  S     2.537585  4.730771  0.736217
  S     2.835927  8.467020  0.844116
  S     1.655075  5.142219  4.758836
  S     2.088837  8.659586  4.845352
