16  
    
  C     2.186128  4.603493  3.042503
  C     1.943050  8.148547  3.150046
  C     1.073100  3.943920  2.321972
  C     0.821852  7.477205  2.499138
  N     3.257938  4.543168  2.269260
  N     2.999298  8.279145  2.390855
  N     1.262317  3.592565  1.044103
  N     1.109756  7.061314  1.260646
  N     0.255414  4.381667  4.704096
  N     0.116182  8.209420  4.913423
  S    -0.429888  3.977521  3.296949
  S    -0.609227  7.619774  3.514768
  S     2.779711  4.048693  0.763689
  S     2.711749  7.472724  0.968564
  S     1.884405  4.831541  4.787621
  S     1.715883  8.617736  4.752274
