16  
    
  C     1.399462  4.522997  3.310827
  C     1.451750  8.032775  3.078057
  C     0.032105  4.220712  2.900013
  C     0.153260  7.862145  2.412439
  N     2.227722  4.797495  2.297269
  N     2.575690  7.937143  2.333480
  N     0.001571  3.921718  1.611328
  N     0.288107  7.664609  1.091878
  N    -0.071952  4.457962  5.430214
  N    -0.374656  8.015629  4.899363
  S    -1.118031  4.111087  4.156472
  S    -1.228814  7.917204  3.489927
  S     1.483964  4.299760  0.930814
  S     1.947325  7.669171  0.855021
  S     1.473517  4.664804  5.049193
  S     1.292861  8.111894  4.819319
