16  
    
  C    -4.457028  1.642752  1.948213
  C    -4.660821  5.036671  1.695721
  C    -5.626487  0.974020  1.350010
  C    -5.818633  4.430477  1.047848
  N    -3.454422  1.746960  1.105337
  N    -3.613752  5.295661  0.941264
  N    -5.510897  0.838136  0.011070
  N    -5.672029  4.332565 -0.252968
  N    -5.982404  1.069393  3.923500
  N    -6.397661  4.713982  3.527645
  S    -6.805145  0.628162  2.514291
  S    -7.088191  4.002343  2.142471
  S    -4.012324  1.263820 -0.369186
  S    -4.130784  4.906851 -0.587887
  S    -4.382765  1.767883  3.694576
  S    -4.802477  5.194247  3.370239
