16  
    
  C    -5.364373  1.144988  1.420464
  C    -5.332254  4.618688  1.586732
  C    -6.588397  0.751328  0.778819
  C    -6.609486  4.167183  1.123956
  N    -4.326121  1.205978  0.580169
  N    -4.404872  4.778357  0.609420
  N    -6.475261  0.507484 -0.534887
  N    -6.716401  4.026702 -0.210220
  N    -7.038329  0.987912  3.271813
  N    -6.962222  4.512114  3.684139
  S    -7.897306  0.596683  1.918182
  S    -7.866696  4.184618  2.307373
  S    -4.863293  0.812931 -0.931660
  S    -5.213035  4.370939 -0.821451
  S    -5.465492  1.376831  3.168191
  S    -5.377783  4.757801  3.329075
