16  
    
  C    -1.180806  3.045456  2.382715
  C    -0.868194  6.927666  2.307092
  C    -2.437482  2.815819  1.696887
  C    -2.157153  6.636009  1.790903
  N    -0.167010  3.050063  1.518573
  N     0.082677  7.153921  1.404025
  N    -2.398309  2.627583  0.361644
  N    -2.128896  6.451004  0.478784
  N    -2.950020  3.200638  4.277808
  N    -2.334331  6.527663  4.263095
  S    -3.790543  2.935829  2.825547
  S    -3.408074  6.487895  2.948023
  S    -0.764829  2.690946  0.012161
  S    -0.508719  6.611754 -0.011537
  S    -1.268221  3.249599  4.078958
  S    -0.741094  6.931299  3.985465
