16  
    
  C    -3.766563  1.544070  1.827093
  C    -3.971467  5.516073  1.910363
  C    -5.075387  1.395125  1.138778
  C    -5.154577  5.232340  1.093827
  N    -2.808812  1.748728  0.940924
  N    -2.901489  5.797107  1.203219
  N    -5.007348  1.252955 -0.171637
  N    -4.962448  5.160716 -0.229181
  N    -5.502469  1.507431  3.657750
  N    -5.792810  4.642360  3.495764
  S    -6.351365  1.249375  2.249355
  S    -6.474935  4.695311  2.013063
  S    -3.456287  1.526460 -0.542704
  S    -3.400699  5.661987 -0.438612
  S    -3.844759  1.748341  3.503044
  S    -4.221506  5.237648  3.606798
