16  
    
  C     3.290671  5.418802  3.539941
  C     3.652269  9.306490  3.504333
  C     2.132382  4.818372  2.868805
  C     2.523554  8.709698  2.899204
  N     4.328038  5.546215  2.668098
  N     4.603195  9.519164  2.529502
  N     2.187520  4.762540  1.537961
  N     2.567218  8.450069  1.593475
  N     1.612115  4.952032  5.426281
  N     1.971596  8.741685  5.287077
  S     0.816461  4.511756  4.026967
  S     1.241907  8.147215  3.926555
  S     3.747794  5.146351  1.119990
  S     3.969187  8.917125  1.102840
  S     3.220081  5.352471  5.284750
  S     3.445913  9.432444  5.205747
