16  
    
  C     2.038202  4.436674  3.002844
  C     2.073519  7.994875  3.198099
  C     0.790333  4.006711  2.380983
  C     0.890084  7.560965  2.471772
  N     3.109280  4.483606  2.208272
  N     3.155236  8.052095  2.415871
  N     1.013445  3.615050  1.119836
  N     1.109414  7.369321  1.195540
  N     0.346799  4.424396  4.859900
  N     0.045677  8.099322  4.798737
  S    -0.532568  3.931062  3.527709
  S    -0.522763  7.435519  3.429993
  S     2.587402  4.003389  0.688707
  S     2.658433  7.673078  0.866592
  S     1.904803  4.793487  4.709932
  S     1.691434  8.318960  4.893878
