16  
    
  C     3.271200  5.419510  3.519554
  C     3.654340  9.298237  3.490653
  C     2.119606  4.807885  2.872490
  C     2.505874  8.705954  2.895089
  N     4.315473  5.535127  2.670820
  N     4.594251  9.527423  2.517852
  N     2.181885  4.743333  1.539199
  N     2.562477  8.459401  1.591026
  N     1.616412  4.965257  5.415958
  N     1.976906  8.744233  5.292206
  S     0.801993  4.503255  4.019491
  S     1.246285  8.155027  3.930558
  S     3.743298  5.151789  1.129104
  S     3.981355  8.907249  1.100843
  S     3.217549  5.353280  5.274394
  S     3.455787  9.436788  5.206365
