16  
    
  C     2.970359  5.384397  3.742701
  C     2.737372  8.629303  3.156757
  C     1.643749  5.033107  3.240117
  C     1.407134  8.294535  2.651353
  N     3.956670  5.147232  2.859502
  N     3.767257  8.499431  2.296926
  N     1.610897  4.822202  1.918014
  N     1.479345  7.974267  1.333941
  N     1.325524  5.460900  5.753134
  N     1.048727  8.985870  5.099072
  S     0.374170  5.444357  4.361832
  S     0.162915  8.357229  3.894771
  S     3.194316  4.610683  1.533175
  S     3.032196  8.240037  0.855395
  S     3.001927  5.627212  5.452528
  S     2.692619  9.110501  4.841417
