16  
    
  C    -1.216481  3.108282  2.284550
  C    -0.877094  7.014398  2.323410
  C    -2.528392  2.811494  1.716352
  C    -2.181156  6.666811  1.747266
  N    -0.136225  2.946877  1.504042
  N     0.083781  7.195728  1.420209
  N    -2.435822  2.688488  0.398747
  N    -2.143432  6.437602  0.452362
  N    -2.905154  3.198153  4.223731
  N    -2.439741  6.553162  4.318812
  S    -3.803633  2.860492  2.868274
  S    -3.432305  6.529217  3.030073
  S    -0.803145  2.761589 -0.028443
  S    -0.603854  6.670921 -0.018767
  S    -1.255473  3.249538  4.037323
  S    -0.849910  6.933199  4.055053
