16  
    
  C     0.978939  4.189219  2.626384
  C     1.133036  7.680036  3.153552
  C    -0.133700  3.332786  2.219962
  C    -0.187022  7.270913  2.520682
  N     1.969040  4.100137  1.749840
  N     2.135093  7.708924  2.281399
  N    -0.017866  2.849914  0.987895
  N    -0.135443  7.086076  1.194897
  N    -0.758748  4.332739  4.505835
  N    -0.624379  7.516898  5.065299
  S    -1.473740  3.421882  3.371434
  S    -1.487055  7.190794  3.662350
  S     1.479722  3.349747  0.400787
  S     1.433023  7.338741  0.836319
  S     0.867461  4.776252  4.246216
  S     1.002149  8.020360  4.868817
