16  
    
  C     3.159457  5.192615  3.442748
  C     3.563525  9.200846  3.329164
  C     2.007119  4.615243  2.814368
  C     2.370171  8.604320  2.765711
  N     4.184277  5.556939  2.653397
  N     4.600154  9.330080  2.535591
  N     2.126799  4.565826  1.490861
  N     2.593282  8.385647  1.471602
  N     1.411145  5.147620  5.295262
  N     2.089390  8.822141  5.403956
  S     0.718385  4.412688  3.990156
  S     1.179763  8.338930  4.120327
  S     3.621365  5.138195  1.128715
  S     4.076505  8.908465  1.026648
  S     3.030981  5.385584  5.150392
  S     3.557566  9.461951  5.061841
