16  
    
  C     2.510427  4.778004  3.515406
  C     2.456153  8.707789  3.376374
  C     1.338736  4.428624  2.774075
  C     1.224228  8.159216  2.909344
  N     3.602678  5.014620  2.757325
  N     3.465141  8.898156  2.541620
  N     1.452824  4.349061  1.445365
  N     1.308716  7.844489  1.597691
  N     0.535079  4.483624  5.283686
  N     0.971274  8.411424  5.491999
  S     0.039490  3.919015  3.722719
  S     0.040117  7.988982  4.201794
  S     3.038046  4.707253  1.203961
  S     2.833822  8.357525  1.102504
  S     2.149880  4.999869  5.225103
  S     2.553903  8.896409  5.084521
