16  
    
  C    -1.800838  2.524027  2.031497
  C    -1.867967  6.467660  2.179201
  C    -3.072059  2.067710  1.480510
  C    -2.966865  5.602963  1.689854
  N    -0.784544  2.609716  1.192402
  N    -0.881146  6.656502  1.316830
  N    -2.949173  1.831062  0.195325
  N    -2.719515  5.147476  0.452072
  N    -3.442444  2.113149  4.022442
  N    -3.608833  6.210631  4.137616
  S    -4.343658  1.867452  2.654198
  S    -4.270168  5.318863  2.894182
  S    -1.389597  2.141230 -0.266080
  S    -1.333235  5.948478 -0.134330
  S    -1.875940  2.582089  3.797763
  S    -2.121370  6.881457  3.850871
