16  
    
  C    -1.567921  2.639837  2.397428
  C    -1.534347  6.399370  2.328103
  C    -2.689363  2.209493  1.598531
  C    -2.739282  5.928388  1.760718
  N    -0.463129  2.738517  1.664051
  N    -0.504422  6.484778  1.478800
  N    -2.475902  1.910571  0.301886
  N    -2.595608  5.653090  0.465093
  N    -3.464885  2.478628  4.043093
  N    -3.273458  6.243216  4.199347
  S    -4.048581  1.849036  2.627394
  S    -4.061967  5.706639  2.794149
  S    -0.821261  2.240956  0.110831
  S    -1.136428  6.163160 -0.009647
  S    -1.892374  3.018568  4.040942
  S    -1.654112  6.592316  4.003439
