16  
    
  C     2.260833  4.316371  3.110982
  C     1.979449  8.261139  3.143055
  C     1.085944  4.089933  2.300346
  C     0.839465  7.599552  2.555342
  N     3.328730  4.510568  2.355118
  N     3.045933  8.188291  2.351227
  N     1.325304  3.780643  1.027307
  N     1.097536  7.019545  1.370000
  N     0.254899  4.366090  4.777459
  N     0.127612  8.219826  4.903765
  S    -0.410401  3.935254  3.287875
  S    -0.593077  7.602383  3.562990
  S     2.933429  4.032859  0.801731
  S     2.594120  7.443775  0.938602
  S     1.817745  4.813966  4.657077
  S     1.654791  8.859606  4.724553
