16  
    
  C     3.007690  5.332482  3.386471
  C     3.635386  9.004476  3.396368
  C     1.887592  4.606625  2.804366
  C     2.376314  8.577904  2.901965
  N     4.072768  5.434642  2.601261
  N     4.529671  9.143389  2.390808
  N     2.023383  4.448760  1.479911
  N     2.249256  8.335319  1.563772
  N     1.321766  4.866914  5.224192
  N     1.975714  8.980161  5.363237
  S     0.599066  4.314593  3.836298
  S     1.115491  8.581052  4.048121
  S     3.588076  4.977118  1.144464
  S     3.786109  8.727451  0.939639
  S     2.832230  5.515824  5.045640
  S     3.550843  9.384066  5.150602
