16  
    
  C    -5.350327  1.150176  1.415983
  C    -5.364485  4.630409  1.587589
  C    -6.578490  0.668113  0.803562
  C    -6.614622  4.181734  1.129601
  N    -4.321563  1.181467  0.545895
  N    -4.451215  4.757184  0.617945
  N    -6.416766  0.495666 -0.502393
  N    -6.716834  4.038651 -0.188261
  N    -7.062406  0.959447  3.250881
  N    -6.963582  4.432645  3.682083
  S    -7.897096  0.569806  1.915741
  S    -7.877344  4.211095  2.289431
  S    -4.870319  0.844576 -0.941271
  S    -5.207197  4.389613 -0.835684
  S    -5.470687  1.379581  3.145056
  S    -5.393330  4.784508  3.342823
