16  
    
  C    -0.735000  3.055970  2.666986
  C    -1.272842  6.491828  2.541238
  C    -1.974248  2.641553  2.049744
  C    -2.380395  5.960450  1.849963
  N     0.303005  3.271706  1.872311
  N    -0.313219  6.970086  1.761267
  N    -1.775584  2.268161  0.800484
  N    -2.253693  5.927341  0.521505
  N    -2.534323  3.060626  4.604964
  N    -3.161914  6.060234  4.340620
  S    -3.311857  2.726420  3.139570
  S    -3.774484  5.571019  2.906235
  S    -0.194566  2.636177  0.404390
  S    -0.729391  6.499102  0.189356
  S    -0.851173  3.327209  4.382060
  S    -1.620798  6.587098  4.333683
