16  
    
  C    -0.319355  3.427921  2.963139
  C    -0.910665  6.841570  2.737898
  C    -1.517900  2.986399  2.321053
  C    -1.995545  6.292897  1.888886
  N     0.590813  3.782621  2.058753
  N     0.188185  7.029345  2.037413
  N    -1.401574  2.659169  1.031603
  N    -1.662351  6.143926  0.611617
  N    -2.268106  3.320931  4.782396
  N    -2.891950  6.438971  4.341988
  S    -2.967712  2.859627  3.299027
  S    -3.436194  6.049835  2.856168
  S     0.135607  3.111995  0.613543
  S    -0.012995  6.626376  0.432834
  S    -0.618537  3.740269  4.645000
  S    -1.367243  6.998551  4.440065
