16  
    
  C    -5.996774  0.803054  1.367143
  C    -5.993127  4.251778  1.559691
  C    -7.200470  0.674104  0.647092
  C    -7.235830  3.837742  0.893321
  N    -4.959174  0.958111  0.567941
  N    -5.087352  4.755106  0.712171
  N    -7.059540  0.579933 -0.682910
  N    -7.153108  3.867817 -0.454764
  N    -7.818247  0.277240  3.162772
  N    -7.646931  3.861007  3.468610
  S    -8.595040  0.310954  1.716913
  S    -8.373095  3.376414  2.063665
  S    -5.423502  0.807555 -1.032511
  S    -5.648463  4.508915 -0.807000
  S    -6.197939  0.644190  3.095993
  S    -6.021930  4.186147  3.274543
