16  
    
  C     2.979061  5.257904  3.929651
  C     2.675208  8.635258  3.136723
  C     1.705006  4.918864  3.353081
  C     1.372845  8.289398  2.622605
  N     4.016190  5.288635  3.109895
  N     3.648394  8.544058  2.202494
  N     1.761066  4.714164  2.053109
  N     1.337540  7.970258  1.334886
  N     1.233283  5.776036  5.733728
  N     0.911080  8.636081  5.131368
  S     0.348696  5.186225  4.441387
  S     0.051627  8.168695  3.704264
  S     3.353566  4.823751  1.623084
  S     2.839883  8.148083  0.751495
  S     2.902598  5.902031  5.502115
  S     2.555237  8.932521  4.869110
