16  
    
  C    -5.438320  1.054610  1.299561
  C    -5.416085  4.841656  1.540480
  C    -6.581343  0.506713  0.599924
  C    -6.495138  4.276227  0.838619
  N    -4.453206  1.409741  0.486445
  N    -4.398165  5.175945  0.766745
  N    -6.374638  0.480734 -0.693987
  N    -6.328640  4.272964 -0.480394
  N    -7.155680  0.458850  3.059223
  N    -7.169795  4.342871  3.331291
  S    -7.932889  0.126010  1.638318
  S    -7.917422  4.089456  1.884020
  S    -4.922447  1.135338 -1.057968
  S    -4.802404  4.921694 -0.820151
  S    -5.659945  1.200206  2.999601
  S    -5.694736  5.148430  3.210962
