16  
    
  C    -3.158963  1.733992  2.018491
  C    -3.149049  5.655010  2.099014
  C    -4.375448  1.394229  1.327883
  C    -4.306673  5.072332  1.479235
  N    -2.115253  1.955420  1.239016
  N    -2.142556  5.897048  1.287015
  N    -4.251615  1.346644  0.018904
  N    -4.128929  4.772039  0.182367
  N    -5.089173  1.601285  3.755637
  N    -4.803370  5.039602  4.070589
  S    -5.784124  1.251106  2.245831
  S    -5.568436  4.629014  2.611079
  S    -2.672078  1.714231 -0.313058
  S    -2.722176  5.423477 -0.277122
  S    -3.427471  1.961511  3.691537
  S    -3.384786  5.839690  3.821806
