16  
    
  C    -3.136540  1.911625  1.772583
  C    -3.144963  5.885747  2.041970
  C    -4.276417  1.371765  1.007996
  C    -4.401416  5.504606  1.470375
  N    -2.131109  2.365457  1.006690
  N    -2.140417  6.014979  1.153691
  N    -3.978168  1.192964 -0.272790
  N    -4.377853  5.390521  0.137793
  N    -5.041423  1.563685  3.437113
  N    -4.675367  5.370607  3.987320
  S    -5.676004  1.059848  1.987639
  S    -5.620856  5.231883  2.678345
  S    -2.461479  1.871388 -0.542818
  S    -2.878370  5.786638 -0.331291
  S    -3.486259  2.217413  3.419917
  S    -3.098332  5.907495  3.711492
