16  
    
  C     2.343189  4.764506  3.320307
  C     2.387155  8.649640  3.519344
  C     1.095618  4.481139  2.658134
  C     1.155671  8.357549  2.872151
  N     3.313056  5.031761  2.461106
  N     3.374151  8.840807  2.655472
  N     1.243919  4.291916  1.353780
  N     1.205481  8.391485  1.543269
  N     0.612522  4.247556  5.183139
  N     0.573707  8.745069  5.379216
  S    -0.150639  3.833992  3.733084
  S    -0.159142  8.135722  3.995335
  S     2.739946  4.766094  0.897603
  S     2.795193  8.632349  1.129793
  S     2.176108  4.707469  5.044307
  S     2.237899  9.050668  5.194149
