16  
    
  C    -5.567889  0.845509  1.490844
  C    -5.480913  4.748414  1.239975
  C    -6.763011  0.445188  0.858125
  C    -6.694106  4.257101  0.682119
  N    -4.521759  0.914206  0.678746
  N    -4.586750  5.035271  0.345170
  N    -6.613711  0.266579 -0.418519
  N    -6.653254  4.115050 -0.613107
  N    -7.361582  0.786267  3.296630
  N    -6.952744  4.297196  3.204443
  S    -8.106015  0.242226  1.896813
  S    -7.874286  3.973671  1.853405
  S    -5.076369  0.601505 -0.815933
  S    -5.151298  4.647496 -1.143665
  S    -5.767668  1.033754  3.159812
  S    -5.491006  5.051432  2.963977
