16  
    
  C    -1.142707  3.038612  2.229398
  C    -1.029749  6.789676  2.509639
  C    -2.500831  2.823357  1.706513
  C    -2.314221  6.466088  1.946445
  N    -0.221431  3.195967  1.276973
  N    -0.035289  7.056497  1.668875
  N    -2.491849  2.681875  0.375710
  N    -2.334894  6.673620  0.620929
  N    -2.777678  3.013459  4.205610
  N    -2.714296  6.875886  4.414697
  S    -3.716015  2.691686  2.896042
  S    -3.621521  6.548473  3.014259
  S    -0.975791  2.997099 -0.175751
  S    -0.747306  6.963042  0.155822
  S    -1.174883  3.327913  3.974669
  S    -1.080924  7.089822  4.182191
