16  
    
  C     0.539389  3.553592  2.770237
  C     0.767040  7.644697  2.653908
  C    -0.654649  3.081488  2.069756
  C    -0.457031  7.205779  2.050718
  N     1.614257  3.867680  1.993423
  N     1.686598  8.030049  1.802248
  N    -0.511967  3.250371  0.745959
  N    -0.361833  7.201229  0.739402
  N    -1.254915  3.280414  4.595667
  N    -0.799879  6.808701  4.498249
  S    -2.009898  2.794663  3.150594
  S    -1.651026  6.566017  3.076622
  S     1.069517  3.566925  0.464038
  S     1.068860  7.786013  0.248540
  S     0.306708  3.651975  4.470368
  S     0.650922  7.625352  4.420376
