16  
    
  C    -4.291567  1.463183  2.028255
  C    -4.635507  5.219783  1.697287
  C    -5.469516  0.973289  1.369728
  C    -5.889579  4.700409  1.112423
  N    -3.286732  1.757783  1.219850
  N    -3.631535  5.400256  0.840848
  N    -5.276885  0.615708  0.083567
  N    -5.745244  4.398737 -0.162432
  N    -6.126227  1.481115  3.723855
  N    -6.232081  4.955843  3.597884
  S    -6.866095  0.879697  2.318597
  S    -7.182124  4.542800  2.254742
  S    -3.720268  1.251360 -0.263014
  S    -4.227507  4.828372 -0.579151
  S    -4.531579  1.976944  3.737669
  S    -4.659043  5.448749  3.391971
