16  
    
  C    -0.417571  3.272477  2.688254
  C    -0.314864  7.037865  2.500536
  C    -1.489257  2.534461  2.065314
  C    -1.520478  6.347319  1.962296
  N     0.709942  3.458120  1.954229
  N     0.696149  7.171029  1.628396
  N    -1.368158  2.516182  0.729076
  N    -1.360572  5.913417  0.717262
  N    -2.189794  3.004542  4.549488
  N    -2.055178  6.943828  4.338225
  S    -2.851443  2.357912  3.138411
  S    -2.697436  6.033067  3.090964
  S     0.234002  2.900605  0.428544
  S     0.098859  6.392040  0.240997
  S    -0.655760  3.665126  4.386449
  S    -0.493620  7.531852  4.144825
