16  
    
  C    -3.344413  1.978267  2.025582
  C    -3.120436  5.504726  2.044555
  C    -4.543744  1.440224  1.453103
  C    -4.231418  4.834736  1.409178
  N    -2.358462  2.207589  1.167359
  N    -2.054913  5.702130  1.293135
  N    -4.594620  1.381764  0.143972
  N    -4.033221  4.584035  0.125799
  N    -4.878777  1.411634  3.943600
  N    -4.939677  5.263936  3.874909
  S    -5.761609  1.059724  2.633434
  S    -5.536677  4.484618  2.508230
  S    -3.067897  1.753177 -0.294481
  S    -2.535193  5.173436 -0.246035
  S    -3.328027  1.862382  3.686941
  S    -3.389989  5.812573  3.848460
