16  
    
  C    -4.709783  1.012864  1.430820
  C    -4.646938  4.638589  1.960174
  C    -5.947628  0.736722  0.733964
  C    -5.864640  4.272222  1.305308
  N    -3.629703  1.124028  0.626639
  N    -3.608686  4.783387  1.122295
  N    -5.770020  0.654860 -0.599285
  N    -5.748659  4.009930  0.013063
  N    -6.626232  0.889324  3.264953
  N    -6.562776  4.563481  3.777521
  S    -7.319428  0.410296  1.841060
  S    -7.260603  4.092139  2.346063
  S    -4.211544  0.920685 -0.923582
  S    -4.221958  4.477777 -0.402680
  S    -4.914902  1.165648  3.186788
  S    -4.884205  4.912533  3.714909
