16  
    
  C    -0.733274  3.034303  2.613779
  C    -1.335179  6.617346  2.515921
  C    -1.963984  2.595339  1.992030
  C    -2.419914  5.956697  1.896048
  N     0.314965  3.070702  1.782881
  N    -0.288566  6.862345  1.765749
  N    -1.795731  2.292933  0.735729
  N    -2.246789  5.755694  0.627988
  N    -2.548492  2.982395  4.442398
  N    -3.009454  5.965627  4.292293
  S    -3.325626  2.568247  3.037622
  S    -3.774940  5.577329  2.814090
  S    -0.265250  2.685177  0.301511
  S    -0.763559  6.436557  0.244869
  S    -0.925517  3.280829  4.362582
  S    -1.444171  6.568774  4.238633
