16  
    
  C    -3.768909  1.969071  1.907969
  C    -3.511764  5.401159  1.884618
  C    -4.742633  1.052813  1.279956
  C    -4.793673  5.029341  1.338220
  N    -2.760555  2.367947  1.140743
  N    -2.524635  5.610648  1.019355
  N    -4.433175  0.741561  0.034274
  N    -4.752570  4.794949  0.029097
  N    -5.421194  1.335199  3.705660
  N    -5.300093  5.440481  3.799585
  S    -5.912027  0.532826  2.333165
  S    -6.112861  4.963589  2.485574
  S    -3.058723  1.586466 -0.320802
  S    -3.252160  5.141357 -0.459577
  S    -4.160794  2.400403  3.519285
  S    -3.663896  5.766432  3.544225
