16  
    
  C     0.840879  4.174534  2.470357
  C     1.558268  8.284498  3.232011
  C    -0.287379  3.418127  1.886492
  C     0.258089  8.136906  2.547709
  N     1.841624  4.281248  1.626047
  N     2.593174  8.469511  2.390941
  N    -0.089040  3.146672  0.596738
  N     0.281094  8.117452  1.215879
  N    -0.854776  3.801613  4.347571
  N    -0.243748  8.208392  5.095476
  S    -1.604585  3.120024  3.008015
  S    -1.074253  7.975188  3.670417
  S     1.402932  3.662027  0.181088
  S     1.859912  8.315681  0.875310
  S     0.691243  4.212649  4.197891
  S     1.433604  8.397678  4.941377
