16  
    
  C     1.941369  4.253582  3.362976
  C     1.637816  7.765202  3.060362
  C     0.703316  4.188281  2.659834
  C     0.416454  7.605403  2.384623
  N     2.966220  4.364597  2.539426
  N     2.666041  7.958078  2.239820
  N     0.732739  4.124769  1.325542
  N     0.521222  7.679759  1.045938
  N     0.158082  3.950987  5.232500
  N     0.045720  7.398029  4.941589
  S    -0.593460  3.716752  3.808959
  S    -0.807654  7.147242  3.536046
  S     2.310485  4.441874  1.012190
  S     2.102593  7.849276  0.680105
  S     1.807412  4.284859  5.131915
  S     1.664637  7.662953  4.747211
