16  
    
  C     2.883895  5.248563  3.258768
  C     2.887013  9.082862  3.451298
  C     1.723599  4.614076  2.714260
  C     1.737078  8.473566  2.808889
  N     3.809210  5.531852  2.391931
  N     3.852363  9.495662  2.566027
  N     1.828450  4.299050  1.447725
  N     1.835338  8.323489  1.491553
  N     1.390142  4.634177  5.185088
  N     1.123470  8.425626  5.248125
  S     0.495016  4.186605  3.850414
  S     0.572701  7.836431  3.790697
  S     3.260154  4.959344  0.929345
  S     3.363903  8.919271  1.048900
  S     2.788970  5.522754  4.983447
  S     2.663548  9.128999  5.219978
