16  
    
  C    -1.610216  2.881999  2.040907
  C    -1.163001  6.798765  2.200099
  C    -2.541053  2.049935  1.366659
  C    -2.445027  6.516909  1.697074
  N    -0.530422  3.120947  1.283584
  N    -0.193428  6.816578  1.316674
  N    -2.400017  1.870353  0.030537
  N    -2.392282  6.210129  0.425017
  N    -3.328417  2.383406  3.854626
  N    -2.805573  6.969819  4.152737
  S    -3.875188  1.637357  2.446621
  S    -3.695533  6.338495  2.871268
  S    -0.843622  2.505800 -0.232494
  S    -0.877916  6.549123 -0.151465
  S    -1.875028  3.216342  3.708682
  S    -1.178977  7.123491  3.874348
