16  
    
  C     0.504398  4.016168  2.913709
  C     0.704754  7.498568  2.857578
  C    -0.710664  3.371417  2.415649
  C    -0.502139  7.118046  2.062946
  N     1.560484  3.867524  2.084748
  N     1.827932  7.650338  2.122216
  N    -0.615266  3.010228  1.107392
  N    -0.232998  6.943659  0.771470
  N    -1.171260  3.826249  4.886722
  N    -1.314104  7.180682  4.526906
  S    -1.936565  3.326866  3.573932
  S    -1.904675  6.879619  3.051989
  S     0.893832  3.357330  0.646693
  S     1.323516  7.204127  0.561373
  S     0.484396  4.170914  4.696370
  S     0.258374  7.747299  4.561431
