16  
    
  C     1.913399  5.171821  3.081614
  C     2.192458  8.543395  3.161166
  C     0.920761  4.342998  2.477335
  C     1.063502  7.993196  2.448768
  N     2.960145  5.377103  2.265884
  N     3.219780  8.839781  2.399728
  N     1.101206  4.122430  1.172996
  N     1.311349  7.868795  1.143394
  N     0.108257  4.622950  4.760192
  N     0.527463  8.162117  5.024499
  S    -0.564077  4.154744  3.379390
  S    -0.280177  7.731948  3.636121
  S     2.555359  4.738617  0.797615
  S     2.803382  8.513742  0.853192
  S     1.621827  5.162645  4.740624
  S     2.110104  8.594928  4.847704
