16  
    
  C    -2.453919  2.532352  1.992194
  C    -2.389263  6.210285  2.090028
  C    -3.720480  2.028383  1.410445
  C    -3.558079  5.639282  1.448361
  N    -1.485013  2.500998  1.103974
  N    -1.363468  6.485723  1.352245
  N    -3.701121  1.877298  0.080812
  N    -3.283809  5.299028  0.197977
  N    -4.134877  2.442641  3.968613
  N    -4.222555  5.832223  3.931740
  S    -4.978275  1.997436  2.615273
  S    -4.980602  5.392445  2.491611
  S    -2.122069  2.188830 -0.375602
  S    -1.701719  5.671345 -0.114930
  S    -2.559794  2.941576  3.681099
  S    -2.663450  6.400633  3.824695
