16  
    
  C    -3.650528  1.767820  2.064994
  C    -3.429194  5.283066  2.040736
  C    -4.714015  1.103615  1.341171
  C    -4.669202  4.870122  1.467347
  N    -2.587600  2.128660  1.332296
  N    -2.429917  5.368619  1.134191
  N    -4.401349  0.735096  0.099547
  N    -4.640989  4.569275  0.152108
  N    -5.610589  1.507205  3.684538
  N    -5.089912  5.333615  4.047993
  S    -6.151685  0.693387  2.251505
  S    -5.938614  4.929313  2.667553
  S    -2.924583  1.431963 -0.203277
  S    -3.075002  4.842631 -0.308328
  S    -3.988788  2.119729  3.729181
  S    -3.468049  5.756884  3.783181
