16  
    
  C     1.533053  4.417748  3.428092
  C     1.387771  7.980617  3.105689
  C     0.241546  4.048390  2.941608
  C     0.149227  7.613330  2.447414
  N     2.553770  4.369419  2.526214
  N     2.432074  8.068991  2.295055
  N     0.147691  4.081038  1.613314
  N     0.293884  7.600099  1.150568
  N    -0.128009  4.693580  5.469287
  N    -0.414798  7.804468  4.904471
  S    -1.013304  4.198150  4.138092
  S    -1.180434  7.355181  3.467090
  S     1.733528  4.120958  1.038998
  S     1.872164  7.918229  0.739587
  S     1.546508  4.851087  5.118081
  S     1.187857  8.206675  4.797576
