16  
    
  C    -0.064474  3.360718  2.609150
  C    -0.035232  6.984476  2.588457
  C    -1.142334  2.579114  1.967173
  C    -1.284158  6.602352  1.878153
  N     0.920395  3.709829  1.782726
  N     0.888315  7.438175  1.770233
  N    -0.896016  2.262504  0.705540
  N    -1.169832  6.690865  0.562382
  N    -1.933962  2.841862  4.368326
  N    -1.811903  6.507641  4.403434
  S    -2.545288  2.317317  2.922312
  S    -2.560633  6.249692  2.972401
  S     0.449176  3.145708  0.254576
  S     0.389327  7.202934  0.176846
  S    -0.375755  3.497248  4.312720
  S    -0.207116  6.932490  4.304541
