16  
    
  C     0.031414  3.316614  2.481418
  C    -0.023234  7.147480  2.730288
  C    -1.118233  2.855627  1.792093
  C    -1.253958  6.729045  2.012960
  N     1.119647  3.586753  1.773697
  N     0.987752  7.445770  1.944436
  N    -0.961295  2.734722  0.473451
  N    -1.102591  6.583073  0.723260
  N    -1.805700  2.968624  4.276290
  N    -1.725234  6.638359  4.474305
  S    -2.402953  2.299673  2.882028
  S    -2.573051  6.456269  3.043077
  S     0.593460  3.275193  0.191483
  S     0.422212  7.172106  0.373373
  S    -0.202693  3.509126  4.162702
  S    -0.126242  7.166615  4.416789
