16  
    
  C     2.008354  5.020646  3.200940
  C     2.015516  8.524940  3.331141
  C     0.914500  4.437890  2.386808
  C     0.808625  8.237513  2.628742
  N     3.104621  5.165516  2.448674
  N     3.083621  8.716712  2.588123
  N     1.039898  4.513068  1.044863
  N     0.894471  8.344386  1.313850
  N     0.229985  4.464013  4.833295
  N     0.282025  8.387965  5.159904
  S    -0.528365  4.205740  3.383318
  S    -0.502014  7.911804  3.789411
  S     2.642228  4.955479  0.850678
  S     2.536123  8.690083  0.994632
  S     1.699653  5.121213  4.952854
  S     1.876171  8.833693  4.966924
