16  
    
  C     2.038792  4.417783  3.036668
  C     2.074940  7.974817  3.199438
  C     0.780244  4.037624  2.379428
  C     0.895154  7.556148  2.464770
  N     3.087742  4.469561  2.213028
  N     3.155481  8.052350  2.416474
  N     0.986215  3.606258  1.120126
  N     1.092263  7.383780  1.171863
  N     0.343004  4.411249  4.864916
  N     0.051934  8.081043  4.805427
  S    -0.530906  3.928730  3.529632
  S    -0.525706  7.430723  3.434327
  S     2.581010  4.001261  0.680460
  S     2.664860  7.683168  0.869518
  S     1.908098  4.797970  4.709681
  S     1.691775  8.313970  4.891317
