16  
    
  C    -2.776409  2.688307  2.363429
  C    -2.680985  5.887567  1.996226
  C    -3.802592  1.895118  1.725292
  C    -3.836019  5.526879  1.286676
  N    -1.808607  3.019908  1.508572
  N    -1.643257  6.160039  1.212794
  N    -3.744611  1.826914  0.368636
  N    -3.695518  5.479116 -0.073640
  N    -4.382868  2.066846  4.264029
  N    -4.516455  5.421944  3.805953
  S    -4.991968  1.361535  2.846416
  S    -5.214764  5.096627  2.311686
  S    -2.243299  2.486893  0.033899
  S    -2.125521  6.109432 -0.358752
  S    -2.842287  2.727846  4.087093
  S    -2.997286  6.100826  3.667476
