16  
    
  C    -0.763854  3.155920  2.679734
  C    -1.218882  6.505858  2.579808
  C    -1.949042  2.569985  2.031642
  C    -2.389227  5.980427  1.847716
  N     0.308290  3.159601  1.871348
  N    -0.289812  6.988348  1.720295
  N    -1.803501  2.244868  0.737507
  N    -2.241707  5.870650  0.523736
  N    -2.519743  3.037341  4.497668
  N    -3.140363  6.020961  4.327582
  S    -3.305113  2.682041  3.116690
  S    -3.794809  5.558646  2.882466
  S    -0.228023  2.658943  0.356739
  S    -0.771960  6.460036  0.209900
  S    -0.894291  3.292411  4.380823
  S    -1.557114  6.579663  4.309120
