16  
    
  C     2.252498  4.341424  3.071853
  C     1.945911  8.296589  3.101454
  C     1.026485  4.139591  2.281770
  C     0.775777  7.643674  2.579455
  N     3.382091  4.341761  2.359181
  N     3.008970  8.296778  2.323154
  N     1.345507  3.720691  1.059909
  N     1.026168  7.211640  1.342939
  N     0.205562  4.466859  4.686391
  N     0.096871  8.560787  4.863549
  S    -0.361662  3.810243  3.208106
  S    -0.503245  7.544215  3.702640
  S     2.919982  3.998510  0.819969
  S     2.565807  7.495691  0.942203
  S     1.896726  4.685459  4.763563
  S     1.681453  9.046203  4.656774
