16  
    
  C    -3.153933  2.172677  1.680485
  C    -3.073940  5.894033  1.990866
  C    -4.253902  1.589198  1.010791
  C    -4.326653  5.462700  1.425566
  N    -2.089608  2.415392  0.946422
  N    -2.170199  6.105359  1.070131
  N    -4.049692  1.391702 -0.267181
  N    -4.360726  5.427451  0.105772
  N    -4.988445  1.603552  3.425212
  N    -4.603914  5.419926  4.014652
  S    -5.477780  0.958521  2.021296
  S    -5.558240  5.306749  2.700087
  S    -2.479575  1.942122 -0.587172
  S    -2.833274  5.715062 -0.455075
  S    -3.476238  2.199468  3.430147
  S    -3.046507  6.001308  3.783307
