16  
    
  C     2.891053  5.353250  3.539179
  C     2.948830  8.717798  3.421523
  C     1.763520  4.782780  2.855487
  C     1.841456  8.114392  2.706045
  N     3.977876  5.459889  2.769018
  N     3.876928  9.161387  2.648697
  N     1.879121  4.759937  1.530740
  N     1.959351  8.102949  1.398439
  N     1.071306  5.046875  5.253738
  N     1.041899  8.364784  5.211704
  S     0.425802  4.496969  3.819648
  S     0.458266  7.924017  3.686378
  S     3.388246  5.283639  1.214804
  S     3.470478  8.756156  1.067704
  S     2.713865  5.339032  5.259855
  S     2.645892  8.921543  5.142042
