16  
    
  C    -1.731386  2.394996  2.030718
  C    -1.895114  6.493494  2.129377
  C    -3.047336  2.118586  1.419974
  C    -2.869057  5.544719  1.660377
  N    -0.774223  2.582388  1.133653
  N    -0.920018  6.774079  1.246071
  N    -3.007303  1.939719  0.091202
  N    -2.659271  5.134969  0.365116
  N    -3.419553  2.085898  3.977526
  N    -3.576901  6.146451  4.114659
  S    -4.326258  1.873664  2.607451
  S    -4.229017  5.401398  2.773768
  S    -1.419922  2.140137 -0.367278
  S    -1.305056  5.895605 -0.124569
  S    -1.820867  2.604459  3.721464
  S    -2.149452  6.980731  3.878091
