16  
    
  C     2.859965  5.211238  3.851567
  C     2.460304  8.490415  3.413331
  C     1.641028  4.680675  3.266922
  C     1.293493  7.945429  2.718075
  N     3.834587  5.409974  2.940665
  N     3.463605  8.764172  2.581435
  N     1.891527  4.104553  2.064570
  N     1.424671  7.882925  1.412267
  N     1.231547  5.113839  5.755516
  N     0.333830  8.515036  4.997992
  S     0.311095  4.729525  4.500720
  S    -0.115284  7.593932  3.652089
  S     3.347353  4.754645  1.538881
  S     2.964567  8.282581  1.086897
  S     2.763322  5.724773  5.521941
  S     1.972705  8.921160  5.129329
