16  
    
  C     3.092824  5.013123  3.441602
  C     3.201033  8.683760  3.748742
  C     1.829198  4.727955  2.837409
  C     1.827275  8.546247  3.227094
  N     4.139058  5.104066  2.619188
  N     4.176850  8.643382  2.806617
  N     1.945577  4.323580  1.570882
  N     1.811476  8.265909  1.912652
  N     1.410154  5.004435  5.412830
  N     1.809756  9.385905  5.735078
  S     0.527301  4.613618  4.081272
  S     0.744624  9.074865  4.535532
  S     3.560243  4.734115  1.075739
  S     3.464043  8.189987  1.395580
  S     3.051214  5.325067  5.164124
  S     3.424520  9.325808  5.360151
