16  
    
  C    -2.618906  2.455882  2.279194
  C    -2.741973  6.519185  1.942977
  C    -3.847679  1.852871  1.694890
  C    -3.782141  5.848939  1.232743
  N    -1.712872  2.904118  1.395884
  N    -1.629536  6.677618  1.213759
  N    -3.694351  1.655023  0.377360
  N    -3.494721  5.481533 -0.025615
  N    -4.382253  2.265509  4.116632
  N    -4.519662  5.892899  3.721562
  S    -5.136852  1.682441  2.780747
  S    -5.079914  5.374670  2.255064
  S    -2.282479  2.369040 -0.111230
  S    -1.964395  6.178102 -0.305790
  S    -2.844889  2.885339  3.961000
  S    -3.000086  6.436384  3.722717
