16  
    
  C    -5.232062  1.259512  1.784606
  C    -5.074582  5.068203  1.381859
  C    -6.315496  0.550283  1.146086
  C    -6.245232  4.501762  0.692331
  N    -4.135903  1.354019  0.999394
  N    -3.973103  5.099845  0.621493
  N    -6.183269  0.221759 -0.160982
  N    -6.034636  4.188749 -0.592080
  N    -6.980049  0.992432  3.655613
  N    -6.890548  4.589413  3.184179
  S    -7.652067  0.377324  2.209273
  S    -7.587692  4.079193  1.754511
  S    -4.618125  0.686605 -0.473702
  S    -4.445621  4.435649 -0.845059
  S    -5.360989  1.366147  3.536084
  S    -5.404002  5.259201  3.092514
