16  
    
  C    -3.652301  2.033843  1.741740
  C    -3.935859  5.268463  1.674497
  C    -4.832926  1.402837  1.146619
  C    -5.080264  4.668485  1.111426
  N    -2.650401  2.268836  0.873265
  N    -2.963747  5.591458  0.833550
  N    -4.757768  1.387209 -0.179487
  N    -4.978989  4.527053 -0.215389
  N    -5.142146  1.200955  3.691501
  N    -5.794898  5.125844  3.490121
  S    -6.042345  1.174460  2.339714
  S    -6.456405  4.350286  2.186584
  S    -3.227220  1.945066 -0.633311
  S    -3.448973  5.051594 -0.643478
  S    -3.781984  2.093868  3.531490
  S    -4.165198  5.462921  3.385695
