16  
    
  C     3.204743  5.240152  3.499817
  C     3.584023  9.246857  3.406109
  C     1.968228  4.828371  2.835502
  C     2.434401  8.650148  2.808870
  N     4.225862  5.532782  2.665956
  N     4.576267  9.516391  2.526723
  N     2.159645  4.559834  1.558720
  N     2.459782  8.441552  1.485416
  N     1.532400  5.070652  5.339465
  N     1.997312  8.765121  5.422140
  S     0.741002  4.443363  3.982874
  S     1.239638  8.239295  4.018790
  S     3.683844  5.183123  1.201539
  S     4.108148  8.878696  1.046032
  S     3.169181  5.367806  5.136066
  S     3.539516  9.465672  5.158237
