16  
    
  C     0.952180  3.817831  2.541649
  C     1.589064  8.001215  3.268831
  C    -0.338482  3.570164  1.897639
  C     0.240727  7.878843  2.654382
  N     1.945404  3.991945  1.660720
  N     2.636439  8.096722  2.428974
  N    -0.155269  3.291260  0.631601
  N     0.280631  7.859487  1.315257
  N    -0.807147  3.553746  4.428421
  N    -0.161749  7.868659  5.171756
  S    -1.637229  3.181349  3.001486
  S    -1.065368  7.890751  3.784633
  S     1.340913  3.716854  0.183486
  S     1.892190  7.976206  0.963188
  S     0.684821  4.098402  4.197033
  S     1.455733  8.049180  5.031470
