16  
    
  C     1.006151  4.050120  2.691375
  C     1.044675  7.662475  3.125445
  C    -0.209338  3.380323  2.191893
  C    -0.191739  7.226819  2.539690
  N     1.939838  4.176010  1.774987
  N     2.124873  7.641017  2.322539
  N    -0.122821  2.824983  0.991745
  N    -0.114369  7.033478  1.221836
  N    -0.709520  4.362227  4.560333
  N    -0.606724  7.479068  5.090755
  S    -1.449239  3.417377  3.385166
  S    -1.451241  7.164495  3.665921
  S     1.423079  3.287002  0.411087
  S     1.443001  7.291193  0.800383
  S     0.885098  4.770910  4.299238
  S     0.971793  7.999309  4.838373
