16  
    
  C     2.104429  4.977203  3.157131
  C     2.037546  8.907340  3.372717
  C     0.895657  4.439495  2.472049
  C     0.822922  8.465668  2.715869
  N     3.115048  5.296450  2.344265
  N     3.087500  9.007172  2.583781
  N     0.966673  4.465529  1.141976
  N     0.934475  8.181044  1.429434
  N     0.394831  4.391091  4.914382
  N     0.229738  8.599772  5.233270
  S    -0.459174  4.111247  3.562613
  S    -0.531307  8.174025  3.768791
  S     2.577074  4.894326  0.816059
  S     2.491918  8.633901  1.028201
  S     2.039964  4.714959  4.920732
  S     1.839378  8.925380  5.170049
