16  
    
  C    -4.457475  1.303465  1.880192
  C    -4.668648  4.773739  1.643708
  C    -5.661325  0.886040  1.232253
  C    -5.794579  4.376091  0.842181
  N    -3.505567  1.747119  1.036066
  N    -3.616907  5.187324  0.964411
  N    -5.490162  0.761127 -0.069632
  N    -5.575711  4.520875 -0.448465
  N    -6.100214  0.767355  3.780350
  N    -6.486652  3.906744  3.308445
  S    -6.837438  0.276010  2.434017
  S    -7.141761  3.755943  1.790310
  S    -4.022906  1.353442 -0.543335
  S    -3.959139  5.037948 -0.699938
  S    -4.512732  1.167771  3.726168
  S    -4.990093  4.573917  3.357623
