16  
    
  C     0.859647  3.903821  2.557487
  C     1.550223  7.959491  3.273484
  C    -0.336185  3.494306  1.835910
  C     0.234753  7.828108  2.651331
  N     1.885648  4.119064  1.759366
  N     2.560515  7.863744  2.394867
  N    -0.137569  3.414986  0.501534
  N     0.265479  7.794564  1.323227
  N    -0.892275  3.646560  4.370836
  N    -0.226178  7.838443  5.215690
  S    -1.625866  3.166278  2.891234
  S    -1.077221  7.791750  3.756141
  S     1.481408  3.716297  0.254793
  S     1.909078  7.868538  0.888016
  S     0.736568  4.051742  4.312211
  S     1.426729  8.023661  5.063486
