16  
    
  C    -2.725207  2.633585  2.302215
  C    -2.710270  6.330474  1.950467
  C    -3.826043  1.832872  1.742133
  C    -3.835236  5.752902  1.300568
  N    -1.748592  2.896640  1.412718
  N    -1.695123  6.770423  1.213800
  N    -3.735115  1.733437  0.390080
  N    -3.573069  5.594678 -0.009807
  N    -4.401746  2.183684  4.248939
  N    -4.505562  5.593189  3.680860
  S    -5.068190  1.513812  2.829928
  S    -5.219726  5.304305  2.190514
  S    -2.284180  2.410476 -0.026181
  S    -2.033492  6.130972 -0.332000
  S    -2.882866  2.855369  4.029902
  S    -2.959598  6.347832  3.666944
