16  
    
  C     0.591032  3.851216  2.992025
  C     0.719374  7.489039  2.819297
  C    -0.652557  3.375476  2.435920
  C    -0.434917  7.105469  2.107093
  N     1.544987  4.044461  2.092842
  N     1.815123  7.618145  2.074120
  N    -0.575355  2.925113  1.199041
  N    -0.310543  6.887871  0.794011
  N    -1.117417  3.945339  4.876286
  N    -1.258847  7.149387  4.637617
  S    -1.989040  3.303471  3.558075
  S    -1.881360  6.852609  3.086579
  S     0.991173  3.314065  0.664688
  S     1.334186  7.210812  0.504689
  S     0.462879  4.228344  4.639145
  S     0.282041  7.780911  4.548999
