16  
    
  C     2.966652  5.223361  3.498150
  C     2.840820  8.701902  3.342473
  C     1.747827  4.793612  2.807127
  C     1.722479  8.140481  2.637069
  N     3.940188  5.567717  2.633362
  N     3.885964  9.134658  2.649889
  N     1.854962  4.665108  1.493216
  N     1.940028  8.198860  1.320086
  N     1.036577  5.116803  5.236274
  N     1.180110  8.320514  5.168450
  S     0.430944  4.379587  3.843995
  S     0.409325  7.812222  3.811611
  S     3.368830  5.236271  1.097723
  S     3.461403  8.876523  1.097823
  S     2.729723  5.358573  5.240832
  S     2.662493  9.003980  5.052198
