16  
    
  C    -0.361030  3.260428  2.582510
  C    -0.203658  7.047435  2.351293
  C    -1.623130  2.793251  1.934617
  C    -1.427083  6.722795  1.687762
  N     0.631544  3.333707  1.748487
  N     0.811239  7.171554  1.490298
  N    -1.518833  2.548221  0.626925
  N    -1.322711  6.467904  0.377995
  N    -2.066201  3.228077  4.444657
  N    -2.091071  6.744834  4.264014
  S    -2.888957  2.658608  3.150945
  S    -2.827520  6.581981  2.799715
  S     0.067713  2.960724  0.225767
  S     0.216447  6.851744 -0.065677
  S    -0.477172  3.613314  4.281643
  S    -0.488172  7.179157  4.094722
