16  
    
  C     0.991555  4.044944  2.666851
  C     1.591648  8.599056  3.102964
  C    -0.193425  3.663209  1.908859
  C     0.366514  8.227228  2.485611
  N     2.061597  4.381972  1.915403
  N     2.556678  8.782231  2.212540
  N     0.019835  3.404345  0.616692
  N     0.383918  8.158759  1.174775
  N    -0.925001  3.796352  4.371714
  N    -0.123766  8.253991  4.943416
  S    -1.551007  3.131893  2.956324
  S    -0.975817  8.000715  3.547487
  S     1.585540  4.031446  0.313530
  S     1.985952  8.430911  0.700024
  S     0.612080  4.395814  4.307722
  S     1.412248  8.791289  4.805268
