16  
    
  C     2.015626  4.944280  3.127394
  C     2.067594  8.525633  3.336235
  C     0.825538  4.589378  2.388835
  C     0.794932  8.243047  2.689241
  N     3.106436  5.210949  2.429398
  N     3.117928  8.811470  2.534788
  N     1.058347  4.414636  1.084345
  N     0.865057  8.389371  1.350400
  N     0.185213  4.398633  4.946762
  N     0.226382  8.513898  5.205784
  S    -0.466960  4.207416  3.459022
  S    -0.497222  7.976737  3.753192
  S     2.654782  4.971682  0.845554
  S     2.476837  8.668643  1.017626
  S     1.775713  4.999121  4.882040
  S     1.831615  8.876814  5.035189
