16  
    
  C    -0.330128  3.387693  2.731473
  C    -0.498789  6.921011  2.480359
  C    -1.628074  3.127791  2.112848
  C    -1.757629  6.427357  1.870201
  N     0.666584  3.454706  1.847609
  N     0.508222  7.106911  1.613344
  N    -1.573529  3.008812  0.780126
  N    -1.571285  6.195443  0.566459
  N    -2.068555  3.243742  4.628518
  N    -2.246567  6.735158  4.422804
  S    -2.867763  2.892577  3.234488
  S    -3.019369  6.134950  3.042611
  S     0.014258  3.252175  0.336079
  S    -0.021063  6.769644  0.091069
  S    -0.524848  3.724064  4.455707
  S    -0.662956  7.097676  4.196979
