16  
    
  C     0.830611  4.035938  2.491245
  C     1.534521  8.335005  3.171957
  C    -0.316188  3.497305  1.868620
  C     0.237835  8.176189  2.544303
  N     1.803240  4.344672  1.603170
  N     2.569405  8.471732  2.348707
  N    -0.086298  3.164038  0.597368
  N     0.250742  8.129982  1.197333
  N    -0.896284  3.764854  4.324123
  N    -0.206805  8.187122  5.051747
  S    -1.576720  3.128202  2.989981
  S    -1.081775  7.980164  3.664660
  S     1.453410  3.678829  0.190655
  S     1.903898  8.361354  0.871256
  S     0.697961  4.265074  4.242620
  S     1.438704  8.472961  4.936907
