16  
    
  C     0.897197  3.947817  2.482092
  C     1.567061  8.236443  3.275280
  C    -0.377114  3.483389  1.876898
  C     0.277531  7.995376  2.632425
  N     1.859375  4.233888  1.626208
  N     2.547074  8.347242  2.356618
  N    -0.186077  3.107289  0.623418
  N     0.284860  7.981509  1.307491
  N    -0.880276  3.745098  4.378368
  N    -0.243519  8.159904  5.148111
  S    -1.592365  3.144301  3.022800
  S    -1.068862  7.975254  3.750374
  S     1.333792  3.655454  0.195150
  S     1.914847  8.220436  0.849070
  S     0.747380  4.176960  4.151432
  S     1.404443  8.198644  5.025618
