16  
    
  C    -5.280925  1.001454  1.765600
  C    -5.185882  4.817762  1.303014
  C    -6.471493  0.458111  1.151698
  C    -6.380363  4.346165  0.634043
  N    -4.196672  1.187277  0.983301
  N    -4.059131  4.886037  0.592064
  N    -6.426349  0.381764 -0.193758
  N    -6.178564  4.119678 -0.674386
  N    -7.132046  1.050972  3.633752
  N    -6.994637  4.846505  3.143786
  S    -7.883764  0.571103  2.234080
  S    -7.766167  4.389184  1.745348
  S    -4.807458  0.824978 -0.572567
  S    -4.568161  4.463916 -0.927303
  S    -5.507893  1.332089  3.457979
  S    -5.392180  5.279931  3.001118
