16  
    
  C    -1.818056  2.358893  2.052870
  C    -1.827352  6.047401  2.064578
  C    -3.021046  1.953303  1.290399
  C    -3.085101  5.719401  1.460230
  N    -0.723894  2.322719  1.294257
  N    -0.821182  6.323050  1.266269
  N    -2.836119  1.844260 -0.033519
  N    -2.973907  5.506881  0.160184
  N    -3.677037  2.067929  3.779870
  N    -3.562737  5.802514  4.007523
  S    -4.422666  1.847415  2.303380
  S    -4.475512  5.731555  2.590397
  S    -1.241620  2.119161 -0.304102
  S    -1.359948  5.824783 -0.189084
  S    -2.040752  2.409087  3.748679
  S    -1.960482  6.225475  3.812291
