16  
    
  C     1.999891  4.361229  3.007533
  C     2.043253  7.866093  3.170173
  C     0.771457  4.017683  2.403069
  C     0.844672  7.526751  2.397188
  N     3.046927  4.358061  2.200117
  N     3.148406  8.054759  2.453350
  N     0.818154  3.705739  1.124745
  N     1.010346  7.476701  1.088165
  N     0.247877  4.296275  4.960208
  N     0.102572  7.918899  4.914732
  S    -0.506123  3.941385  3.533696
  S    -0.555822  7.383999  3.442724
  S     2.468013  3.963594  0.712220
  S     2.696550  7.763963  0.874286
  S     1.910100  4.813014  4.733772
  S     1.726024  8.267707  4.843121
