16  
    
  C    -1.217781  3.112360  2.285121
  C    -0.872503  7.003592  2.316838
  C    -2.520563  2.804044  1.714547
  C    -2.184469  6.666672  1.750041
  N    -0.136616  2.950876  1.509943
  N     0.082201  7.199158  1.416848
  N    -2.436355  2.687096  0.395986
  N    -2.139080  6.441699  0.455632
  N    -2.909585  3.199076  4.228593
  N    -2.427498  6.550791  4.311340
  S    -3.803901  2.866250  2.865336
  S    -3.432734  6.526460  3.025586
  S    -0.799431  2.755801 -0.026598
  S    -0.597348  6.664565 -0.015800
  S    -1.254791  3.248799  4.041341
  S    -0.842560  6.932678  4.049814
