16  
    
  C    -4.220625  1.670140  1.883583
  C    -4.290813  5.186092  1.737797
  C    -5.456389  1.157722  1.284042
  C    -5.569421  4.706234  1.151770
  N    -3.139125  1.691697  1.080368
  N    -3.273426  5.281838  0.867042
  N    -5.230560  0.663434  0.052012
  N    -5.497713  4.480068 -0.158193
  N    -6.047485  1.474188  3.767977
  N    -5.932647  5.062254  3.679984
  S    -6.786155  0.997965  2.369914
  S    -6.805005  4.665179  2.372894
  S    -3.635442  0.965483 -0.287214
  S    -3.909094  4.759466 -0.588329
  S    -4.549512  2.170384  3.496110
  S    -4.424232  5.635176  3.422091
