16  
    
  C    -3.652712  1.872860  1.825729
  C    -3.991973  5.373544  1.786409
  C    -4.870081  1.361172  1.235308
  C    -5.118926  4.786441  1.031409
  N    -2.712879  2.181456  0.933831
  N    -2.918622  5.590976  1.021618
  N    -4.820706  1.377479 -0.090894
  N    -4.935682  4.724746 -0.269830
  N    -5.317368  1.353794  3.729159
  N    -5.876839  5.073617  3.494472
  S    -6.194088  1.160678  2.297110
  S    -6.372293  4.378191  2.069284
  S    -3.314315  1.911719 -0.518719
  S    -3.411593  5.317782 -0.573310
  S    -3.727902  1.972769  3.544382
  S    -4.209510  5.433960  3.499749
