16  
    
  C    -0.467620  3.230201  2.939993
  C    -1.113094  6.830146  2.732461
  C    -1.730368  2.926188  2.248630
  C    -2.174033  6.280210  1.939875
  N     0.580512  3.348577  2.130721
  N     0.050525  6.968314  2.123770
  N    -1.519013  2.616496  0.970291
  N    -1.824440  6.091317  0.682508
  N    -2.366760  3.418210  4.770848
  N    -3.048062  6.264875  4.221998
  S    -3.019354  2.727508  3.357922
  S    -3.655390  5.956382  2.711102
  S     0.072817  3.017116  0.629327
  S    -0.231384  6.613431  0.528649
  S    -0.690094  3.772135  4.568947
  S    -1.511320  6.854425  4.406566
