16  
    
  C    -5.238486  0.981980  1.410812
  C    -5.436186  4.622027  1.601072
  C    -6.487501  0.539395  0.777419
  C    -6.730345  4.321975  1.016933
  N    -4.225371  1.310410  0.571115
  N    -4.454348  4.778142  0.702183
  N    -6.439536  0.350085 -0.538323
  N    -6.742637  4.062740 -0.305247
  N    -7.108802  0.921465  3.312476
  N    -6.975001  4.214926  3.571355
  S    -7.856412  0.417206  1.845953
  S    -7.990354  4.273565  2.235578
  S    -4.913414  0.943429 -0.967016
  S    -5.208275  4.470327 -0.756932
  S    -5.517571  1.357762  3.049100
  S    -5.410100  4.892610  3.367937
