16  
    
  C    -3.617651  1.759147  2.025312
  C    -3.348003  5.305120  2.064819
  C    -4.698390  1.029719  1.377276
  C    -4.655596  4.921217  1.487746
  N    -2.514678  2.035159  1.330220
  N    -2.429279  5.306775  1.132901
  N    -4.405890  0.785470  0.112422
  N    -4.629992  4.577337  0.181240
  N    -5.581072  1.490520  3.712918
  N    -5.020897  5.356451  4.025567
  S    -6.152500  0.793207  2.308611
  S    -5.933407  4.922890  2.645083
  S    -2.888681  1.360955 -0.182545
  S    -3.041088  4.895726 -0.324330
  S    -3.996307  2.041371  3.728314
  S    -3.448709  5.756128  3.829034
