16  
    
  C     1.088940  4.351986  2.824302
  C     1.594285  8.672432  2.942172
  C    -0.053459  3.873098  2.073085
  C     0.447158  8.063787  2.357840
  N     2.177753  4.661655  2.137125
  N     2.599262  8.920952  2.132114
  N     0.208486  3.626631  0.797719
  N     0.614693  7.872701  1.048020
  N    -0.875789  3.829526  4.542042
  N    -0.103651  8.459821  4.876362
  S    -1.496328  3.381436  3.020964
  S    -0.906559  8.079278  3.512730
  S     1.707595  4.234278  0.560346
  S     2.127881  8.355458  0.587626
  S     0.720843  4.342303  4.526538
  S     1.481269  8.890361  4.645498
