16  
    
  C    -1.926541  2.235429  1.993112
  C    -1.957364  5.995545  2.120631
  C    -3.132673  1.835584  1.365603
  C    -3.240524  5.784351  1.479416
  N    -0.837580  2.344870  1.236305
  N    -0.941984  6.026116  1.256506
  N    -3.050329  1.911089  0.045906
  N    -3.203892  5.497006  0.186573
  N    -3.785375  2.379726  3.811045
  N    -3.671772  5.664745  4.097202
  S    -4.487142  1.753102  2.424387
  S    -4.492292  5.599455  2.665316
  S    -1.456851  2.122353 -0.339195
  S    -1.599208  5.696811 -0.202831
  S    -2.129378  2.435595  3.772379
  S    -2.089501  6.057891  3.909516
