16  
    
  C     0.932770  3.842082  2.511918
  C     1.533403  8.065141  3.287575
  C    -0.283950  3.493528  1.913843
  C     0.277371  7.868412  2.676259
  N     1.939244  4.008984  1.665988
  N     2.554213  8.135817  2.438922
  N    -0.220398  3.263563  0.581688
  N     0.271243  7.874833  1.355722
  N    -0.853233  3.548900  4.446577
  N    -0.177913  7.906248  5.177176
  S    -1.637959  3.187348  3.017296
  S    -1.058444  7.922110  3.771260
  S     1.330921  3.703574  0.158481
  S     1.921039  8.021420  0.958720
  S     0.718701  4.139607  4.213103
  S     1.477964  8.062814  4.999025
