16  
    
  C    -0.855784  3.012773  2.434659
  C    -0.727556  6.592698  2.448752
  C    -2.139580  2.738907  1.841696
  C    -1.895741  6.184427  1.726529
  N     0.160455  3.220708  1.585990
  N     0.360768  6.731142  1.658074
  N    -2.043041  2.623666  0.520357
  N    -1.735440  5.858597  0.438944
  N    -2.591029  2.916580  4.426659
  N    -2.541450  6.322465  4.163636
  S    -3.403858  2.650867  2.980297
  S    -3.268998  5.993516  2.693142
  S    -0.449884  2.830274  0.096135
  S    -0.169192  6.171445  0.180802
  S    -0.959681  3.375456  4.160204
  S    -0.931130  6.636321  4.153688
