16  
    
  C    -6.051301  0.733333  1.364736
  C    -6.112678  4.293137  1.829410
  C    -7.225763  0.162647  0.846397
  C    -7.269075  3.834740  1.048451
  N    -5.211530  1.260408  0.460997
  N    -5.090067  4.657477  1.048477
  N    -7.224005  0.141161 -0.478819
  N    -7.041658  3.878088 -0.273760
  N    -7.701151  0.259003  3.391805
  N    -7.800326  3.647493  3.571199
  S    -8.445641 -0.261665  2.002792
  S    -8.633703  3.525837  2.103494
  S    -5.859960  0.972562 -1.053644
  S    -5.484881  4.488252 -0.540198
  S    -6.143418  0.884291  3.091466
  S    -6.344795  4.510396  3.540955
