16  
    
  C    -3.310133  1.762243  2.035970
  C    -3.085408  5.453218  2.063667
  C    -4.615200  1.479594  1.441773
  C    -4.235889  4.888111  1.434296
  N    -2.421745  1.997401  1.089115
  N    -2.047087  5.685630  1.263936
  N    -4.615876  1.276680  0.110608
  N    -4.122699  4.721846  0.156530
  N    -4.916759  1.345822  4.088732
  N    -4.958028  5.196460  3.860926
  S    -5.823579  1.057432  2.700599
  S    -5.590658  4.584539  2.449098
  S    -3.126533  1.729260 -0.433561
  S    -2.501690  5.128056 -0.183329
  S    -3.304779  1.892704  3.833929
  S    -3.345639  5.787503  3.745564
