16  
    
  C     2.975015  5.179450  3.385767
  C     3.502801  9.097087  3.333414
  C     1.842052  4.682248  2.678401
  C     2.200548  8.687096  2.837716
  N     4.016730  5.552810  2.607615
  N     4.510533  9.107594  2.447109
  N     2.079633  4.422214  1.374748
  N     2.259279  8.304726  1.574814
  N     1.338231  4.730761  5.285059
  N     1.932548  9.017899  5.470121
  S     0.529037  4.308054  3.875297
  S     0.976850  8.586012  4.134061
  S     3.658549  4.898758  1.088539
  S     3.767966  8.694418  1.007015
  S     2.786559  5.554991  5.070731
  S     3.542224  9.288108  5.051287
