16  
    
  C    -1.564727  2.854329  2.018789
  C    -1.130232  6.855287  2.236285
  C    -2.652718  2.152231  1.331116
  C    -2.433334  6.495023  1.676200
  N    -0.529280  3.108739  1.268285
  N    -0.145578  6.869379  1.347182
  N    -2.357965  1.926190  0.069503
  N    -2.407059  6.197899  0.374514
  N    -3.296962  2.390388  3.813517
  N    -2.778528  7.019043  4.156686
  S    -3.864829  1.645205  2.440319
  S    -3.702295  6.386244  2.870056
  S    -0.874647  2.565130 -0.265594
  S    -0.861724  6.614403 -0.100853
  S    -1.892939  3.276539  3.692704
  S    -1.083779  7.133643  3.899999
