16  
    
  C     1.529721  4.371983  3.457398
  C     1.407759  7.997336  3.105464
  C     0.214547  4.075919  2.943063
  C     0.155873  7.646934  2.438486
  N     2.481934  4.399691  2.533033
  N     2.451139  8.028771  2.283479
  N     0.106683  4.067576  1.624209
  N     0.255582  7.618244  1.122643
  N    -0.120761  4.689399  5.452565
  N    -0.419519  7.827173  4.907210
  S    -0.995815  4.195084  4.148599
  S    -1.180854  7.390794  3.469771
  S     1.718559  4.140478  1.028093
  S     1.874095  7.903931  0.749462
  S     1.533911  4.842524  5.114136
  S     1.178094  8.200279  4.820415
