16  
    
  C    -1.528987  2.617077  2.340427
  C    -1.473145  6.475084  2.291651
  C    -2.705931  2.182370  1.588071
  C    -2.698839  5.900140  1.673968
  N    -0.421477  2.721184  1.635857
  N    -0.484570  6.607621  1.428423
  N    -2.383405  1.869843  0.348449
  N    -2.628475  5.677327  0.366170
  N    -3.452815  2.461121  4.028879
  N    -3.195510  6.238052  4.219077
  S    -4.044401  1.797662  2.624109
  S    -4.060048  5.818884  2.814793
  S    -0.801003  2.282362  0.074823
  S    -1.082438  6.154654 -0.073889
  S    -1.883663  3.043571  4.014488
  S    -1.602066  6.644848  4.059988
