16  
    
  C    -2.631840  2.495607  2.240158
  C    -2.726261  6.448129  1.939313
  C    -3.801320  1.847941  1.671063
  C    -3.780596  5.823393  1.217328
  N    -1.690877  2.873063  1.364230
  N    -1.630023  6.658836  1.226121
  N    -3.691911  1.652381  0.376326
  N    -3.500257  5.498048  0.012404
  N    -4.376596  2.297183  4.121182
  N    -4.531116  5.945303  3.711894
  S    -5.160703  1.709868  2.776001
  S    -5.055453  5.381925  2.273187
  S    -2.269855  2.363013 -0.114233
  S    -1.936227  6.182225 -0.297805
  S    -2.837382  2.875806  3.935981
  S    -2.989713  6.471599  3.726273
