16  
    
  C     2.946068  5.240956  3.647687
  C     2.865080  8.686650  3.455975
  C     1.687701  5.119830  2.898991
  C     1.734474  8.331808  2.675994
  N     4.002448  5.330883  2.860971
  N     4.024339  8.924775  2.798809
  N     1.846863  4.769797  1.627851
  N     2.027016  8.227490  1.330496
  N     1.133649  4.745212  5.343739
  N     1.029814  8.728002  5.193119
  S     0.362493  4.889281  3.914050
  S     0.369173  8.117192  3.812086
  S     3.445587  5.111363  1.330808
  S     3.690323  8.490700  1.294319
  S     2.716659  5.293969  5.362988
  S     2.683729  8.849866  5.158435
