16  
    
  C     2.956242  5.066348  3.251175
  C     2.860662  9.123272  3.796354
  C     1.730028  4.798518  2.569318
  C     1.648337  8.682206  3.101157
  N     4.050947  5.186777  2.495491
  N     3.942254  9.311842  3.102353
  N     1.973791  4.437789  1.292093
  N     1.913228  8.552593  1.821584
  N     1.160634  4.962119  5.041253
  N     1.237614  8.880113  5.666252
  S     0.388878  4.485454  3.628065
  S     0.395367  8.359106  4.328976
  S     3.537122  4.770165  0.967445
  S     3.582187  8.831300  1.553975
  S     2.811430  5.358341  4.947027
  S     2.768611  9.424101  5.497820
