16  
    
  C     2.185650  4.356152  2.983960
  C     1.979239  8.412078  3.079162
  C     1.036150  3.870698  2.324937
  C     0.850438  7.682094  2.578513
  N     3.275092  4.552729  2.228757
  N     3.028092  8.491364  2.258588
  N     1.281973  3.656306  1.037440
  N     1.113469  7.174538  1.364686
  N     0.255309  4.283876  4.813826
  N     0.160171  8.657028  4.925403
  S    -0.379813  3.896923  3.272328
  S    -0.498500  7.696647  3.694209
  S     2.885087  3.991658  0.712607
  S     2.592899  7.663777  0.897916
  S     1.943683  4.560068  4.746035
  S     1.780905  9.100668  4.660903
