16  
    
  C    -3.690244  1.755339  1.830705
  C    -3.953040  5.391029  1.829438
  C    -4.936507  1.462147  1.202780
  C    -5.062871  4.963734  1.072040
  N    -2.744843  1.944139  0.900459
  N    -2.868388  5.750079  1.127317
  N    -4.905083  1.356038 -0.146061
  N    -4.912264  5.124061 -0.228259
  N    -5.509448  1.621687  3.767288
  N    -5.761425  4.634301  3.549670
  S    -6.271511  1.113822  2.359535
  S    -6.524808  4.546370  2.044532
  S    -3.322901  1.708073 -0.596027
  S    -3.321475  5.554797 -0.516847
  S    -3.836770  1.763744  3.587179
  S    -4.241326  5.428901  3.541776
