16  
    
  C    -0.263033  3.109452  2.652864
  C    -0.309280  6.993867  2.388991
  C    -1.558219  2.738030  2.078511
  C    -1.355205  6.226058  1.908979
  N     0.586380  3.511174  1.690331
  N     0.680302  7.223827  1.516488
  N    -1.482523  2.479189  0.783278
  N    -1.223155  5.917026  0.633283
  N    -1.929775  2.886400  4.575466
  N    -1.970254  6.789993  4.292629
  S    -2.809029  2.521143  3.200788
  S    -2.622966  5.908138  3.003607
  S     0.039790  2.895196  0.261153
  S     0.186801  6.605866  0.125998
  S    -0.372476  3.334292  4.424920
  S    -0.453719  7.415212  4.071694
