16  
    
  C    -4.679452  0.913367  1.414618
  C    -4.856933  4.614535  1.797549
  C    -5.939805  0.641914  0.748896
  C    -6.075192  4.374360  1.083475
  N    -3.612156  1.022263  0.645471
  N    -3.792729  4.705694  1.042792
  N    -5.786646  0.751582 -0.558786
  N    -5.903698  4.283625 -0.236229
  N    -6.501047  0.797773  3.306781
  N    -6.534405  4.366412  3.626785
  S    -7.342144  0.700437  1.784402
  S    -7.419123  4.205886  2.178541
  S    -4.145337  0.970511 -0.922354
  S    -4.247926  4.553686 -0.531960
  S    -4.836680  1.030700  3.110610
  S    -4.918059  4.737103  3.498282
