16  
    
  C    -1.686813  2.308010  1.948199
  C    -1.841273  6.496624  2.122713
  C    -2.970646  1.974149  1.300816
  C    -2.957216  5.832482  1.413004
  N    -0.713813  2.414934  1.055810
  N    -0.768490  6.552816  1.352950
  N    -2.959855  2.052991 -0.021401
  N    -2.644981  5.368426  0.239551
  N    -3.453716  2.367462  3.810330
  N    -3.543670  6.082462  4.005361
  S    -4.312570  1.808001  2.490062
  S    -4.268136  5.525047  2.619178
  S    -1.350713  2.238161 -0.443164
  S    -1.051984  5.919345 -0.189699
  S    -1.810599  2.445586  3.628501
  S    -2.128174  6.963179  3.749933
