16  
    
  C     0.188722  3.773644  2.830268
  C     0.323509  7.459202  2.725172
  C    -0.892501  3.070510  2.168588
  C    -0.976916  7.461260  2.135147
  N     1.266000  3.918364  2.076039
  N     1.314649  7.529929  1.822934
  N    -0.722378  2.970171  0.847878
  N    -0.978414  7.525076  0.798448
  N    -1.523948  3.028533  4.597174
  N    -1.375060  7.457513  4.744701
  S    -2.266205  2.754749  3.101060
  S    -2.252750  7.350785  3.334411
  S     0.791530  3.604027  0.488361
  S     0.644515  7.594058  0.316393
  S     0.005668  3.548417  4.594735
  S     0.271081  7.606347  4.508638
