16  
    
  C    -1.264694  3.341453  2.125240
  C    -1.087832  6.945527  2.563146
  C    -2.455077  2.721253  1.657419
  C    -2.368873  6.787899  1.897699
  N    -0.307393  3.563548  1.227950
  N    -0.037690  6.961198  1.756340
  N    -2.435162  2.596819  0.346376
  N    -2.324765  6.709135  0.586589
  N    -2.695542  2.929437  4.219798
  N    -2.801115  6.777080  4.501997
  S    -3.644594  2.592576  2.909047
  S    -3.680321  6.548803  3.123275
  S    -0.946846  3.059871 -0.206527
  S    -0.702928  6.967890  0.178052
  S    -1.115336  3.317299  3.891995
  S    -1.212355  7.122608  4.346279
