16  
    
  C    -2.365605  2.379790  1.958729
  C    -2.425445  6.298872  2.090757
  C    -3.695573  2.046230  1.415344
  C    -3.560426  5.610609  1.459989
  N    -1.388654  2.543106  1.083787
  N    -1.351609  6.327800  1.378609
  N    -3.632328  1.857401  0.105033
  N    -3.281971  5.142018  0.262041
  N    -4.025032  2.411052  3.951704
  N    -4.171301  5.826087  3.969510
  S    -4.933294  2.018443  2.595911
  S    -4.862736  5.444633  2.512447
  S    -2.079471  2.165677 -0.398284
  S    -1.715591  5.675284 -0.052055
  S    -2.463337  2.913511  3.632658
  S    -2.574099  6.233503  3.842470
