16  
    
  C    -4.324458  1.572240  1.981180
  C    -4.599905  5.059545  1.710334
  C    -5.568800  1.104737  1.370967
  C    -5.826621  4.500564  1.063530
  N    -3.365343  1.799665  1.098456
  N    -3.658494  5.345339  0.807534
  N    -5.477115  0.771181  0.064235
  N    -5.693638  4.346308 -0.250368
  N    -6.018137  1.206623  3.914704
  N    -6.344536  4.654697  3.619376
  S    -6.842329  0.698865  2.559271
  S    -7.124350  4.223676  2.221453
  S    -3.863681  1.240730 -0.407027
  S    -4.178048  4.838176 -0.691837
  S    -4.531241  1.810725  3.688852
  S    -4.841694  5.331855  3.493524
