16  
    
  C    -5.559631  0.763109  1.554702
  C    -5.482770  4.688785  1.263523
  C    -6.765113  0.444369  0.825661
  C    -6.760347  4.168441  0.676505
  N    -4.479714  0.886504  0.749823
  N    -4.558342  4.941232  0.323075
  N    -6.703197  0.244871 -0.497008
  N    -6.768414  4.074115 -0.675211
  N    -7.452145  0.595520  3.337439
  N    -7.199165  4.297397  3.241478
  S    -8.187461  0.287568  1.872982
  S    -8.052905  4.019463  1.853687
  S    -5.072674  0.586920 -0.825843
  S    -5.290977  4.635207 -1.181271
  S    -5.803888  1.107334  3.246363
  S    -5.687234  5.021565  3.017470
