16  
    
  C    -0.894915  3.137454  2.467028
  C    -0.611422  6.564968  2.424360
  C    -2.115622  2.710435  1.830732
  C    -1.859064  6.221129  1.748968
  N     0.131933  3.100833  1.626167
  N     0.367181  6.797494  1.574329
  N    -2.077001  2.677532  0.490852
  N    -1.744640  5.962791  0.464606
  N    -2.630613  3.003256  4.370380
  N    -2.541700  6.330269  4.168221
  S    -3.431154  2.677297  2.962321
  S    -3.260424  6.028669  2.735833
  S    -0.481632  2.810202  0.109292
  S    -0.092574  6.180766  0.085941
  S    -1.025444  3.388129  4.186553
  S    -0.921560  6.646705  4.164622
