16  
    
  C     3.157276  5.139308  3.436847
  C     3.227544  8.874202  3.741749
  C     1.875991  4.824175  2.804844
  C     1.850515  8.692452  3.300967
  N     4.159098  5.178136  2.567616
  N     4.138575  8.611228  2.817319
  N     1.885421  4.624727  1.517040
  N     1.704502  8.229572  2.093104
  N     1.340102  5.020452  5.240116
  N     1.645954  9.367409  5.690714
  S     0.602362  4.534616  3.860180
  S     0.648498  8.881794  4.514571
  S     3.498775  4.679886  1.108951
  S     3.258147  8.238946  1.435132
  S     2.978914  5.210596  5.139234
  S     3.255944  9.434186  5.417920
