16  
    
  C     2.980108  5.085582  3.277430
  C     2.827047  9.139204  3.773689
  C     1.736724  4.777463  2.557514
  C     1.664741  8.657684  3.096129
  N     4.029277  5.159378  2.447197
  N     3.945794  9.350029  3.104313
  N     1.936649  4.390482  1.295195
  N     1.881279  8.580158  1.752262
  N     1.139103  4.960576  5.059580
  N     1.204051  8.850454  5.664054
  S     0.406124  4.462973  3.633263
  S     0.406793  8.335986  4.307548
  S     3.513642  4.783969  0.935291
  S     3.614908  8.838529  1.552277
  S     2.800953  5.371619  4.957591
  S     2.749745  9.439772  5.488984
