16  
    
  C     2.955701  5.253956  3.508690
  C     2.834629  8.694631  3.370419
  C     1.761924  4.791482  2.805513
  C     1.745217  8.123494  2.644929
  N     3.944194  5.546477  2.656262
  N     3.880961  9.138332  2.649549
  N     1.860753  4.676321  1.496056
  N     1.948505  8.196404  1.313701
  N     1.030020  5.115762  5.229893
  N     1.161907  8.322304  5.165940
  S     0.432012  4.391805  3.837859
  S     0.416150  7.826397  3.803458
  S     3.362390  5.243170  1.113469
  S     3.461902  8.861779  1.093755
  S     2.733247  5.354826  5.246454
  S     2.662931  8.995536  5.059048
