16  
    
  C    -4.588598  0.958605  1.650600
  C    -4.829872  4.557591  1.585203
  C    -5.810697  0.801522  0.920170
  C    -6.049134  4.359889  0.896958
  N    -3.563155  1.149472  0.853046
  N    -3.773524  4.854487  0.838760
  N    -5.688018  0.793655 -0.420685
  N    -5.897384  4.364963 -0.421418
  N    -6.309085  0.702552  3.525158
  N    -6.619666  4.286112  3.444773
  S    -7.096038  0.553678  2.077545
  S    -7.381428  3.995116  1.953244
  S    -4.079256  1.159720 -0.731089
  S    -4.306939  4.886903 -0.732105
  S    -4.693861  0.981372  3.387119
  S    -5.001872  4.474544  3.249485
