16  
    
  C    -4.241860  1.666340  1.894434
  C    -4.214277  5.285909  1.732930
  C    -5.402928  0.946108  1.333249
  C    -5.446007  4.718789  1.194968
  N    -3.199026  1.642271  1.068209
  N    -3.181388  5.270551  0.872164
  N    -5.280582  0.582796  0.031633
  N    -5.264853  4.335699 -0.066192
  N    -6.009311  1.614256  3.800424
  N    -5.864044  5.098518  3.810555
  S    -6.754534  0.961427  2.437169
  S    -6.714892  4.603845  2.422033
  S    -3.661594  0.998872 -0.439061
  S    -3.710519  4.685235 -0.568428
  S    -4.444530  2.190492  3.541530
  S    -4.309720  5.615365  3.409122
