16  
    
  C    -5.551939  0.770810  1.513023
  C    -5.488413  4.674403  1.275557
  C    -6.809346  0.467808  0.868277
  C    -6.719836  4.228684  0.685687
  N    -4.485420  0.899015  0.734658
  N    -4.597471  4.971998  0.333280
  N    -6.660579  0.242907 -0.440169
  N    -6.721860  4.081061 -0.648997
  N    -7.433349  0.679604  3.342332
  N    -7.079939  4.284528  3.222672
  S    -8.139323  0.269853  1.868001
  S    -7.972162  4.002838  1.842098
  S    -5.075309  0.595246 -0.824723
  S    -5.228097  4.646369 -1.185249
  S    -5.780083  1.077197  3.192909
  S    -5.596904  5.050256  3.006698
