16  
    
  C    -5.503780  1.110726  1.329735
  C    -5.267324  5.143690  1.387804
  C    -6.646344  0.615385  0.641138
  C    -6.351489  4.433755  0.726804
  N    -4.482907  1.403231  0.511098
  N    -4.292298  5.523814  0.577022
  N    -6.480669  0.448588 -0.659410
  N    -6.130689  4.186615 -0.568419
  N    -7.349979  0.661394  3.114268
  N    -6.894653  4.477103  3.258722
  S    -7.937137  0.013399  1.686621
  S    -7.474417  3.767739  1.862688
  S    -4.968456  0.987180 -0.990884
  S    -4.642098  4.892320 -0.932947
  S    -5.714371  1.109935  3.011070
  S    -5.417326  5.258109  3.144292
