16  
    
  C    -0.568900  3.181202  2.868616
  C    -1.267876  6.677588  2.703203
  C    -1.787984  2.906168  2.221151
  C    -2.299660  6.135940  1.902339
  N     0.472941  3.205840  2.019816
  N    -0.175398  6.976916  1.997368
  N    -1.680530  2.479049  0.951715
  N    -2.091365  6.137443  0.575407
  N    -2.414991  3.200294  4.746407
  N    -3.175389  6.120875  4.263135
  S    -3.138308  2.743800  3.265176
  S    -3.779868  5.761280  2.777742
  S    -0.106409  2.771285  0.556199
  S    -0.442065  6.559789  0.408661
  S    -0.772096  3.660449  4.543820
  S    -1.645863  6.707976  4.356780
