16  
    
  C    -0.342357  3.305584  2.724187
  C    -0.331114  7.047751  2.474772
  C    -1.463837  2.650535  2.098368
  C    -1.421434  6.344735  1.968267
  N     0.699114  3.467455  1.942804
  N     0.637548  7.158134  1.592633
  N    -1.291124  2.414516  0.800884
  N    -1.347645  5.999850  0.694526
  N    -2.243741  3.045456  4.545156
  N    -2.099943  6.984043  4.351121
  S    -2.832408  2.323628  3.104929
  S    -2.739492  6.088732  3.094724
  S     0.250858  2.896781  0.442910
  S     0.175839  6.387077  0.229034
  S    -0.709700  3.671112  4.368022
  S    -0.532425  7.516398  4.183959
