16  
    
  C    -2.304307  2.429539  1.965044
  C    -2.392051  6.173292  2.197011
  C    -3.565677  2.087137  1.417811
  C    -3.492397  5.582237  1.519913
  N    -1.339740  2.536383  1.029520
  N    -1.301715  6.278083  1.394788
  N    -3.586877  1.811548  0.113319
  N    -3.283828  5.159332  0.281065
  N    -3.960836  2.398546  3.895740
  N    -4.119954  5.872259  3.969826
  S    -4.902799  2.016894  2.599865
  S    -4.872396  5.440974  2.537252
  S    -2.044246  2.137930 -0.377596
  S    -1.713889  5.663603 -0.114442
  S    -2.412975  2.843728  3.612587
  S    -2.509905  6.180923  3.891678
