16  
    
  C    -0.421947  3.355732  2.700275
  C    -0.346144  7.042634  2.504635
  C    -1.367761  2.502299  2.086784
  C    -1.476241  6.415385  1.876938
  N     0.599257  3.631423  1.924641
  N     0.740859  7.107508  1.751622
  N    -1.141377  2.206401  0.809207
  N    -1.197601  6.052050  0.628245
  N    -2.276053  3.065095  4.501414
  N    -2.156369  6.991208  4.270862
  S    -2.807586  2.307357  3.063813
  S    -2.864832  6.342516  2.914940
  S     0.391456  2.820383  0.497230
  S     0.324897  6.600667  0.292743
  S    -0.715624  3.727694  4.395681
  S    -0.567898  7.471819  4.143053
