16  
    
  C    -5.314338  1.261647  1.482988
  C    -5.337367  4.573561  1.549755
  C    -6.628407  0.943624  0.885335
  C    -6.596799  4.124053  1.037794
  N    -4.265073  1.184382  0.637998
  N    -4.347781  4.653283  0.651971
  N    -6.566941  0.672169 -0.411348
  N    -6.634174  3.928571 -0.301175
  N    -7.054431  1.110432  3.338510
  N    -6.859749  4.832756  3.517911
  S    -7.975620  0.836335  1.982124
  S    -7.781507  4.086170  2.324141
  S    -4.949529  0.770097 -0.847066
  S    -5.079175  4.302005 -0.794291
  S    -5.491039  1.323540  3.171369
  S    -5.197481  4.795885  3.279104
