16  
    
  C    -3.737672  1.919660  1.929317
  C    -3.567259  5.439222  1.923639
  C    -4.725532  1.068451  1.310208
  C    -4.767733  4.904676  1.385373
  N    -2.798927  2.385884  1.123921
  N    -2.575501  5.450953  1.065798
  N    -4.349043  0.794637  0.075777
  N    -4.723146  4.509188  0.112041
  N    -5.559692  1.372579  3.771620
  N    -5.210387  5.305923  3.963864
  S    -6.004063  0.512786  2.351423
  S    -6.058327  4.928149  2.555077
  S    -2.989913  1.681654 -0.345645
  S    -3.188607  4.859906 -0.412836
  S    -4.241796  2.380333  3.554123
  S    -3.563233  5.815800  3.691268
