16  
    
  C     0.055027  3.511719  2.304534
  C     0.305103  7.573111  2.772015
  C    -1.188498  3.165072  1.720125
  C    -0.828007  6.918034  2.166207
  N     1.080995  3.666587  1.508249
  N     1.408462  7.737210  2.003763
  N    -1.155474  3.254739  0.397727
  N    -0.559717  6.446926  0.953601
  N    -1.677407  3.497439  4.301962
  N    -1.489937  7.238678  4.743829
  S    -2.482956  3.051376  2.922726
  S    -2.155811  6.596982  3.390678
  S     0.433674  3.413236 -0.008850
  S     0.925515  6.987044  0.517613
  S    -0.011151  3.820115  4.043097
  S     0.026003  7.948344  4.534626
