16  
    
  C     0.077762  3.563278  2.731381
  C     0.288942  7.337104  2.676141
  C    -0.974895  2.909694  2.048206
  C    -1.005774  7.300914  2.075420
  N     1.119289  3.917106  1.981885
  N     1.298582  7.539013  1.850964
  N    -0.802400  2.829863  0.741045
  N    -0.935679  7.356176  0.775567
  N    -1.621956  3.087976  4.571422
  N    -1.417168  7.348548  4.562642
  S    -2.326472  2.616933  3.093540
  S    -2.329054  7.238403  3.131989
  S     0.785529  3.430110  0.439480
  S     0.718234  7.552081  0.342327
  S    -0.140512  3.805455  4.442508
  S     0.234485  7.540807  4.363051
