16  
    
  C    -3.384854  1.771700  1.606722
  C    -3.734476  5.574705  1.699951
  C    -4.634239  1.220572  0.991610
  C    -4.881722  5.083517  1.016198
  N    -2.302937  1.894694  0.815289
  N    -2.741196  5.742711  0.861131
  N    -4.422782  0.891943 -0.274690
  N    -4.786068  4.914023 -0.309404
  N    -5.103412  1.453687  3.567270
  N    -5.535252  5.203876  3.517657
  S    -5.862389  0.826579  2.165931
  S    -6.232953  4.827705  2.048417
  S    -2.842665  1.236348 -0.700165
  S    -3.257679  5.499963 -0.637247
  S    -3.555608  2.122889  3.303840
  S    -3.847914  5.607006  3.476095
