16  
    
  C    -1.169860  3.052802  2.266266
  C    -0.953309  6.783986  2.477642
  C    -2.421362  2.719597  1.685774
  C    -2.283271  6.520311  1.878462
  N    -0.228440  3.096995  1.334022
  N     0.000547  7.107717  1.605133
  N    -2.540873  2.788344  0.356307
  N    -2.295118  6.596825  0.572297
  N    -2.812451  3.066143  4.231431
  N    -2.690486  6.827643  4.345079
  S    -3.728695  2.714748  2.883071
  S    -3.608714  6.552015  3.020259
  S    -0.964596  2.945817 -0.163844
  S    -0.773860  6.924123  0.126989
  S    -1.191715  3.322765  3.997396
  S    -1.027493  7.065275  4.206866
