16  
    
  C     1.952412  4.084255  3.178468
  C     1.879425  7.944380  3.102179
  C     0.606348  3.986978  2.574982
  C     0.658325  7.486061  2.436875
  N     2.899694  4.385433  2.283487
  N     2.866008  8.289938  2.258821
  N     0.639726  3.883066  1.262479
  N     0.763975  7.398251  1.110301
  N     0.171625  4.285412  5.142995
  N     0.209374  7.460715  4.955013
  S    -0.763049  4.049242  3.720995
  S    -0.618445  7.097340  3.569476
  S     2.195847  4.061576  0.838644
  S     2.248910  8.043285  0.728679
  S     1.799747  4.245149  4.898045
  S     1.829872  7.842720  4.787024
