16  
    
  C     1.996772  4.632641  3.263514
  C     1.602361  7.853242  3.009513
  C     0.872366  3.949476  2.729714
  C     0.355620  7.566195  2.300423
  N     3.021780  4.868051  2.411283
  N     2.734474  7.921185  2.302814
  N     0.878209  4.049631  1.382835
  N     0.525650  7.448451  0.986048
  N     0.364514  4.062578  5.225175
  N    -0.270175  7.591528  4.874142
  S    -0.461484  3.662550  3.773960
  S    -1.033817  7.259720  3.392155
  S     2.417359  4.464577  0.911328
  S     2.199724  7.724299  0.755541
  S     1.903140  4.746101  5.017979
  S     1.366806  7.840526  4.762740
