16  
    
  C    -5.534837  0.893069  1.428120
  C    -5.387506  4.986592  1.175254
  C    -6.786322  0.413203  0.768590
  C    -6.545253  4.337830  0.659219
  N    -4.473082  1.077542  0.652077
  N    -4.390563  5.221429  0.347106
  N    -6.674878  0.250221 -0.523535
  N    -6.533452  4.145543 -0.642306
  N    -7.367570  0.884604  3.245092
  N    -6.815584  4.352527  3.248926
  S    -8.085389  0.181164  1.932083
  S    -7.739993  3.899481  1.961431
  S    -5.039261  0.609082 -0.885410
  S    -5.015246  4.645607 -1.095433
  S    -5.670472  1.014502  3.224408
  S    -5.340296  5.013375  2.902631
