16  
    
  C     3.005992  5.384620  3.861495
  C     2.681142  8.545258  3.132481
  C     1.714192  4.921663  3.356022
  C     1.364592  8.211781  2.594371
  N     4.031914  5.148796  2.998412
  N     3.622306  8.511092  2.207754
  N     1.739999  4.677220  2.018593
  N     1.323379  8.072700  1.266349
  N     1.231807  5.716859  5.810655
  N     0.979875  8.756780  5.020272
  S     0.350016  5.280378  4.419968
  S     0.058743  8.193528  3.799245
  S     3.314246  4.800004  1.561896
  S     2.893536  8.179405  0.788338
  S     2.907917  5.871495  5.556153
  S     2.624718  9.007191  4.837642
