16  
    
  C    -3.249895  1.912457  2.015814
  C    -3.135730  5.475087  2.127126
  C    -4.450607  1.364415  1.344081
  C    -4.260498  4.786240  1.446590
  N    -2.215169  2.100707  1.185613
  N    -2.168825  5.866702  1.301139
  N    -4.362405  1.317366  0.012390
  N    -4.110655  4.687784  0.140452
  N    -5.015230  1.576663  3.897758
  N    -4.837033  5.110948  3.956338
  S    -5.781425  1.190762  2.487333
  S    -5.585019  4.508907  2.568740
  S    -2.828879  1.800280 -0.392916
  S    -2.607025  5.294067 -0.189067
  S    -3.396787  1.877443  3.810488
  S    -3.346111  5.872618  3.789351
