16  
    
  C    -5.796353  0.861115  1.555336
  C    -5.914403  4.675291  1.486042
  C    -6.987537  0.368931  0.884910
  C    -7.218670  4.331963  0.797894
  N    -4.748899  1.162737  0.818304
  N    -4.882537  4.825013  0.671462
  N    -6.812210  0.198249 -0.410254
  N    -7.052581  4.104611 -0.470467
  N    -7.653777  0.709089  3.354458
  N    -7.820630  4.331284  3.338185
  S    -8.274941  0.019953  1.971762
  S    -8.532977  3.991155  1.893935
  S    -5.214400  0.676582 -0.749510
  S    -5.450218  4.422840 -0.859933
  S    -5.958044  1.024810  3.346014
  S    -6.217788  4.701837  3.185894
