16  
    
  C     2.963384  5.263038  3.652239
  C     2.914114  8.689197  3.531181
  C     1.738473  5.041286  2.965486
  C     1.746134  8.352215  2.725228
  N     4.025949  5.291962  2.865570
  N     4.066178  8.728688  2.867129
  N     1.826415  4.858981  1.660180
  N     2.046739  8.289767  1.452234
  N     1.093636  4.856665  5.405690
  N     1.046856  8.750912  5.144119
  S     0.331365  4.960221  3.913034
  S     0.335193  8.154314  3.812582
  S     3.394876  5.002280  1.306921
  S     3.667171  8.469339  1.238476
  S     2.764435  5.259873  5.365256
  S     2.679279  8.918878  5.192504
