16  
    
  C     2.265488  4.333079  3.062128
  C     1.932711  8.308545  3.102020
  C     1.023356  4.137168  2.278731
  C     0.766787  7.647152  2.577323
  N     3.398395  4.356323  2.348494
  N     3.008231  8.301862  2.331768
  N     1.350526  3.715053  1.064011
  N     1.026853  7.207533  1.346945
  N     0.203931  4.458185  4.672173
  N     0.111404  8.575870  4.854830
  S    -0.359068  3.813821  3.217401
  S    -0.505450  7.548822  3.713646
  S     2.908064  3.993223  0.823178
  S     2.573124  7.508191  0.938327
  S     1.891865  4.674886  4.763462
  S     1.685572  9.047005  4.648770
