16  
    
  C     2.948662  5.279519  3.952646
  C     2.582693  8.689151  3.165868
  C     1.690218  4.962944  3.320776
  C     1.341142  8.273925  2.588445
  N     3.963245  5.338456  3.104229
  N     3.557581  8.674198  2.221839
  N     1.794527  4.657876  2.042086
  N     1.331578  7.829802  1.322180
  N     1.214805  5.833483  5.689256
  N     0.854930  8.411944  5.092947
  S     0.393767  5.040096  4.475860
  S     0.045084  8.172974  3.706354
  S     3.417007  4.860312  1.688437
  S     2.882951  8.113056  0.808349
  S     2.834809  5.919207  5.531085
  S     2.441297  8.828285  4.902024
