16  
    
  C     0.029977  3.639514  2.589619
  C     0.290743  7.545192  2.643312
  C    -1.102740  2.867531  1.980071
  C    -0.957919  7.165236  1.992779
  N     1.044861  3.834577  1.746150
  N     1.390831  7.706019  1.900196
  N    -0.973435  2.737462  0.678063
  N    -0.764624  7.007871  0.676229
  N    -1.813416  3.383780  4.387738
  N    -1.462995  7.181552  4.512481
  S    -2.378332  2.615922  3.097287
  S    -2.318174  7.013824  3.109230
  S     0.553391  3.165354  0.312585
  S     0.795284  7.291957  0.364428
  S    -0.267617  4.073574  4.275613
  S     0.219488  7.479956  4.385773
