16  
    
  C    -6.043409  0.898126  1.473624
  C    -6.136589  4.481176  1.777910
  C    -7.145726  0.166447  0.942597
  C    -7.285878  4.051944  1.026721
  N    -5.161411  1.276365  0.597503
  N    -5.060340  4.630689  1.072283
  N    -7.125914  0.098150 -0.366801
  N    -7.070785  4.037551 -0.262470
  N    -7.469369  0.192612  3.471406
  N    -8.052238  4.201940  3.514959
  S    -8.300965 -0.248191  2.125976
  S    -8.729841  3.797388  2.047204
  S    -5.691726  0.802372 -0.893354
  S    -5.454357  4.438002 -0.529871
  S    -6.059926  1.048108  3.216254
  S    -6.444753  4.513300  3.436073
