16  
    
  C    -1.931787  2.575986  2.653266
  C    -1.677349  5.897125  2.306340
  C    -3.057309  2.001539  1.912175
  C    -2.956755  5.652722  1.702287
  N    -0.889586  2.677104  1.873473
  N    -0.697272  6.105836  1.463634
  N    -2.906443  1.783262  0.613789
  N    -2.888506  5.564263  0.397962
  N    -3.740739  2.101002  4.418673
  N    -3.510437  5.684917  4.225510
  S    -4.437571  1.749731  2.945305
  S    -4.280078  5.453444  2.790647
  S    -1.326505  2.314448  0.305411
  S    -1.351673  5.977806 -0.084627
  S    -2.127388  2.417110  4.366017
  S    -1.889144  5.805217  4.031697
