16  
    
  C     2.921875  5.080950  3.184015
  C     2.947428  9.199085  3.700241
  C     1.711100  4.435136  2.647284
  C     1.903846  8.466434  3.045564
  N     3.891791  5.308256  2.335910
  N     3.968424  9.563189  2.855179
  N     1.804669  4.253403  1.353551
  N     2.016761  8.330846  1.732984
  N     1.237017  5.023130  5.096952
  N     1.099017  8.643342  5.463748
  S     0.451616  4.187449  3.790823
  S     0.480180  8.170430  3.949748
  S     3.329397  4.842933  0.885875
  S     3.444055  9.005739  1.330410
  S     2.838622  5.468592  4.853197
  S     2.607131  9.398150  5.464786
