16  
    
  C     2.888078  5.238373  3.275342
  C     2.901766  9.070081  3.442966
  C     1.706179  4.638943  2.708467
  C     1.746410  8.474526  2.794822
  N     3.804833  5.528587  2.401886
  N     3.848938  9.485870  2.561891
  N     1.827502  4.288690  1.446274
  N     1.813774  8.331647  1.480805
  N     1.395660  4.643731  5.194789
  N     1.133006  8.414022  5.237290
  S     0.492998  4.189589  3.847182
  S     0.581101  7.832305  3.784676
  S     3.265777  4.976847  0.940326
  S     3.356800  8.908355  1.042343
  S     2.788960  5.521118  4.981160
  S     2.653496  9.125500  5.225333
