16  
    
  C    -0.336232  3.305428  2.735382
  C    -0.326485  7.053420  2.479831
  C    -1.466642  2.665500  2.097680
  C    -1.424979  6.340105  1.968297
  N     0.698193  3.468922  1.937736
  N     0.637387  7.157543  1.589128
  N    -1.282225  2.401274  0.807604
  N    -1.346275  6.004796  0.689614
  N    -2.247316  3.047178  4.539508
  N    -2.105871  6.986954  4.353895
  S    -2.830192  2.321183  3.103505
  S    -2.743245  6.095138  3.095574
  S     0.252828  2.896896  0.443728
  S     0.184501  6.388496  0.226337
  S    -0.713942  3.671653  4.367316
  S    -0.536308  7.514189  4.185429
