16  
    
  C    -4.448979  1.315156  1.887175
  C    -4.669376  4.762461  1.653084
  C    -5.653554  0.896245  1.244276
  C    -5.800712  4.376471  0.833510
  N    -3.509745  1.761345  1.038084
  N    -3.626066  5.198493  0.963265
  N    -5.500383  0.758277 -0.048466
  N    -5.562749  4.520830 -0.454530
  N    -6.099308  0.777683  3.779901
  N    -6.483425  3.891468  3.314694
  S    -6.836794  0.267980  2.446447
  S    -7.141625  3.753769  1.792528
  S    -4.016246  1.357968 -0.545400
  S    -3.943859  5.038992 -0.696756
  S    -4.510105  1.176343  3.719815
  S    -4.979418  4.589324  3.363425
