16  
    
  C     0.624801  3.764565  3.202773
  C     1.087431  7.551278  2.745215
  C    -0.428883  3.146768  2.339054
  C    -0.125317  7.062688  1.974497
  N     1.643342  4.199208  2.497496
  N     2.160855  7.774269  2.009285
  N    -0.291098  3.274053  1.037422
  N     0.111563  6.856994  0.684146
  N    -1.272027  3.029301  4.812163
  N    -0.659877  7.080530  4.500814
  S    -1.842090  2.756768  3.256723
  S    -1.396845  6.629487  3.103535
  S     1.294123  3.849988  0.840172
  S     1.677838  7.361219  0.457471
  S     0.220954  3.720937  4.904491
  S     0.868420  7.753969  4.406354
