16  
    
  C     2.383374  4.873693  3.322878
  C     2.423899  8.653442  3.475322
  C     1.210170  4.284078  2.663213
  C     1.123906  8.336949  2.848493
  N     3.392863  5.171750  2.512151
  N     3.484717  8.719163  2.703223
  N     1.269804  4.255596  1.332951
  N     1.236995  8.286636  1.527005
  N     0.522831  4.212992  5.215942
  N     0.762486  8.763467  5.372496
  S    -0.158847  3.883433  3.727058
  S    -0.117900  8.078550  4.102940
  S     2.862772  4.695871  0.966894
  S     2.860536  8.660665  1.155935
  S     2.213551  4.719657  5.127082
  S     2.387597  9.000010  5.176596
