16  
    
  C     3.106112  5.079133  3.393033
  C     3.195576  8.963153  3.747082
  C     1.845419  4.920499  2.737995
  C     1.864873  8.668505  3.322609
  N     4.177317  5.098636  2.600158
  N     4.057896  8.766672  2.762475
  N     1.997723  4.591499  1.461623
  N     1.730661  8.324602  2.016952
  N     1.288438  5.016636  5.262428
  N     1.543464  9.411935  5.799041
  S     0.523099  4.538817  3.858004
  S     0.633455  8.798606  4.477745
  S     3.568060  4.756990  1.047136
  S     3.204273  8.195942  1.424133
  S     2.960223  5.221275  5.129026
  S     3.204262  9.421729  5.520585
