16  
    
  C     1.044301  4.151234  2.600548
  C     1.100800  7.922126  3.102439
  C    -0.053540  3.445587  2.054471
  C    -0.091517  7.475770  2.499093
  N     2.018590  4.315136  1.763453
  N     2.192814  7.968986  2.309362
  N     0.102357  3.045905  0.807001
  N    -0.043385  7.241437  1.159109
  N    -0.885842  4.210235  4.342535
  N    -0.624542  7.745632  5.116538
  S    -1.394133  3.306670  3.106252
  S    -1.430178  7.452207  3.718848
  S     1.667735  3.481069  0.396615
  S     1.553727  7.547725  0.820086
  S     0.761090  4.718597  4.265494
  S     1.003372  8.084941  4.851972
