16  
    
  C    -5.409176  1.069852  1.560222
  C    -5.144138  4.576091  1.527296
  C    -6.647464  0.725180  0.926052
  C    -6.445882  4.193141  1.050229
  N    -4.420428  1.088529  0.693446
  N    -4.234708  4.594209  0.568274
  N    -6.571051  0.674563 -0.416802
  N    -6.498189  3.976265 -0.247420
  N    -7.136086  1.075667  3.479033
  N    -6.802661  4.559915  3.551000
  S    -7.952168  0.964792  2.010733
  S    -7.738099  4.269050  2.183078
  S    -4.992985  0.892562 -0.819807
  S    -4.968041  4.207784 -0.883442
  S    -5.515868  1.369939  3.294614
  S    -5.251917  5.035683  3.215785
