16  
    
  C    -4.172366  1.410929  1.905392
  C    -4.010627  5.183506  1.973536
  C    -5.371266  1.128788  1.240885
  C    -5.304310  4.759875  1.387566
  N    -3.112531  1.401854  1.085500
  N    -2.960310  4.972441  1.181348
  N    -5.292180  1.047425 -0.105515
  N    -5.246868  4.403008  0.092014
  N    -5.997606  1.412002  3.838825
  N    -5.731429  5.328453  3.922406
  S    -6.765055  1.120063  2.356009
  S    -6.597807  4.851745  2.533520
  S    -3.714357  1.192674 -0.451074
  S    -3.639361  4.471959 -0.309037
  S    -4.353621  1.621158  3.665607
  S    -4.110909  5.677402  3.654550
