16  
    
  C    -3.827270  1.581420  1.735293
  C    -3.960020  5.432123  1.923039
  C    -5.120316  1.240887  1.111292
  C    -5.204452  5.170261  1.127692
  N    -2.791503  1.588533  0.921303
  N    -2.934589  5.864453  1.180104
  N    -5.035616  1.142376 -0.222345
  N    -5.005278  5.285049 -0.181016
  N    -5.591482  1.490929  3.645639
  N    -5.852769  4.904624  3.591815
  S    -6.496779  1.364814  2.269369
  S    -6.609633  4.724277  2.120326
  S    -3.476107  1.373055 -0.689549
  S    -3.397481  5.677289 -0.392368
  S    -3.973665  1.715238  3.482194
  S    -4.186057  5.087085  3.578534
