16  
    
  C     0.084665  3.610223  2.648936
  C     0.335582  7.526176  2.683277
  C    -1.031099  2.966269  2.059246
  C    -0.912348  7.303271  2.005081
  N     1.097645  3.822368  1.824981
  N     1.324066  7.614062  1.800261
  N    -0.945766  2.780392  0.767522
  N    -0.836178  7.036329  0.709514
  N    -1.763558  3.364074  4.465254
  N    -1.474727  7.182443  4.559888
  S    -2.362790  2.521516  3.084380
  S    -2.286439  7.095138  3.074271
  S     0.618949  3.219966  0.327701
  S     0.783428  7.383191  0.257682
  S    -0.284762  4.007411  4.285638
  S     0.139247  7.454525  4.435959
