16  
    
  C    -5.806365  0.914212  1.602063
  C    -5.964965  4.710327  1.449335
  C    -6.942718  0.394497  0.894030
  C    -7.208200  4.330337  0.809986
  N    -4.760274  1.106617  0.812409
  N    -4.911679  4.837208  0.640188
  N    -6.779964  0.232045 -0.404961
  N    -7.029102  4.122636 -0.486247
  N    -7.608613  0.703763  3.316775
  N    -7.775589  4.396970  3.313498
  S    -8.285532  0.047299  1.952312
  S    -8.509814  3.986688  1.881286
  S    -5.177641  0.652795 -0.744547
  S    -5.418953  4.425583 -0.898139
  S    -5.945936  1.024981  3.333207
  S    -6.163987  4.702945  3.156398
