16  
    
  C    -4.897580  0.978503  1.775427
  C    -4.767164  4.692703  1.772430
  C    -6.054877  0.433926  1.089454
  C    -5.868999  4.023873  1.130562
  N    -3.881309  1.312018  0.954282
  N    -3.789147  5.086785  0.958683
  N    -5.878456  0.182340 -0.207005
  N    -5.728367  3.849091 -0.184866
  N    -6.767611  0.948883  3.463226
  N    -6.684389  4.592097  3.525394
  S    -7.306537  0.116483  2.149498
  S    -7.277089  3.901403  2.133883
  S    -4.347911  0.854101 -0.575460
  S    -4.252909  4.553858 -0.559191
  S    -5.245646  1.499097  3.388486
  S    -5.128694  5.180021  3.387658
