16  
    
  C     2.835946  5.220302  3.787801
  C     2.291214  8.583350  3.409309
  C     1.691096  4.447556  3.330152
  C     1.189276  7.919169  2.701209
  N     3.852195  5.307668  2.892844
  N     3.406608  8.784381  2.762023
  N     1.715824  4.235522  2.005179
  N     1.483460  7.768544  1.436911
  N     1.178913  4.944846  5.839861
  N     0.342506  8.432889  5.008010
  S     0.324903  4.588026  4.439446
  S    -0.130635  7.535428  3.767068
  S     3.237249  4.648771  1.439422
  S     3.035988  8.382122  1.168586
  S     2.656206  5.690442  5.445059
  S     1.908443  8.958086  5.015425
