16  
    
  C    -3.082428  2.167648  1.761628
  C    -2.954393  5.923528  1.970049
  C    -4.176893  1.487089  1.058788
  C    -4.251240  5.468657  1.517467
  N    -2.063169  2.492386  0.972755
  N    -1.999672  6.072460  1.073484
  N    -4.012954  1.516689 -0.265307
  N    -4.192392  5.255013  0.192968
  N    -4.853314  1.620210  3.468918
  N    -4.586732  5.596756  3.975751
  S    -5.514402  1.099212  2.031260
  S    -5.514864  5.280607  2.648970
  S    -2.458886  2.168652 -0.562626
  S    -2.780627  5.770487 -0.402230
  S    -3.325058  2.309837  3.468668
  S    -2.986244  6.058969  3.677910
