16  
    
  C     2.021921  4.595188  3.273781
  C     1.623003  7.899059  3.065746
  C     0.808079  4.044557  2.676733
  C     0.405842  7.498108  2.344275
  N     3.035241  4.609229  2.446841
  N     2.680729  8.144635  2.262944
  N     0.880393  3.933751  1.361748
  N     0.478728  7.461913  0.991715
  N     0.310201  4.253579  5.215928
  N    -0.314249  7.634568  4.813856
  S    -0.450252  3.708201  3.839019
  S    -0.932723  7.064930  3.334820
  S     2.479310  4.365646  0.899662
  S     2.102995  7.795661  0.757499
  S     1.843836  4.924940  4.936671
  S     1.278494  8.091060  4.783159
