16  
    
  C     0.993716  4.058554  2.641061
  C     1.575092  8.654657  3.092026
  C    -0.176297  3.629426  1.900629
  C     0.373834  8.204795  2.475415
  N     2.071551  4.415587  1.965960
  N     2.549810  8.816377  2.226043
  N     0.027402  3.469513  0.594408
  N     0.436182  8.127807  1.178146
  N    -0.931295  3.832516  4.410748
  N    -0.132657  8.295420  4.914741
  S    -1.538966  3.137712  2.945116
  S    -0.960285  8.002693  3.509355
  S     1.605773  4.057937  0.337997
  S     1.981912  8.424675  0.680217
  S     0.625156  4.406932  4.368097
  S     1.442990  8.811762  4.794298
