16  
    
  C    -0.331253  3.347656  2.699409
  C    -0.451570  6.949914  2.416487
  C    -1.607627  3.226121  2.039477
  C    -1.614297  6.408739  1.860295
  N     0.656644  3.398000  1.817816
  N     0.555347  7.148131  1.574783
  N    -1.619581  2.969044  0.732260
  N    -1.610416  6.287793  0.537316
  N    -2.094552  3.236076  4.658478
  N    -2.145178  6.718400  4.344355
  S    -2.887027  2.884862  3.201138
  S    -2.947873  6.169019  3.009922
  S    -0.033190  3.259660  0.287267
  S    -0.101591  6.745534  0.107118
  S    -0.451515  3.698188  4.416172
  S    -0.549391  7.109643  4.150083
