16  
    
  C     1.892530  5.146783  3.108187
  C     2.186919  8.632085  3.263833
  C     0.834519  4.488275  2.388694
  C     0.984684  8.172550  2.619748
  N     3.099702  5.212046  2.475610
  N     3.175900  8.956607  2.430939
  N     1.106880  4.432777  1.074307
  N     1.050935  8.156588  1.326519
  N     0.041196  4.768480  4.785103
  N     0.364440  8.064597  5.082226
  S    -0.526959  4.140496  3.410981
  S    -0.324238  7.795392  3.617404
  S     2.681000  4.896753  0.894324
  S     2.590737  8.512316  0.862181
  S     1.538288  5.272646  4.828341
  S     1.963960  8.572946  5.041339
