16  
    
  C     1.897589  4.659712  3.262369
  C     1.449137  8.040087  3.019178
  C     0.725825  3.994370  2.727696
  C     0.389138  7.273613  2.342765
  N     2.936612  4.641883  2.422972
  N     2.414628  8.519992  2.227374
  N     0.850945  3.704807  1.411154
  N     0.608836  7.115734  1.020620
  N     0.108471  4.518554  5.214909
  N    -0.310057  7.608909  4.848851
  S    -0.579573  4.063444  3.779787
  S    -0.917586  6.966747  3.428020
  S     2.344208  4.159342  0.998626
  S     2.015427  7.946744  0.718227
  S     1.787624  4.879242  5.036870
  S     1.229623  8.266031  4.730934
