16  
    
  C     0.688784  3.565721  2.721973
  C     0.629288  7.666611  2.729454
  C    -0.674343  3.446008  2.154054
  C    -0.504487  7.017058  2.191916
  N     1.615508  3.898600  1.827939
  N     1.524347  7.994828  1.800853
  N    -0.625057  3.290675  0.819107
  N    -0.482653  6.832634  0.889824
  N    -0.917148  3.296459  4.728531
  N    -1.058852  7.343845  4.645353
  S    -1.958473  3.132693  3.374772
  S    -1.769856  6.627334  3.278891
  S     0.894014  3.709598  0.352579
  S     0.912393  7.401057  0.348098
  S     0.641726  3.506852  4.423294
  S     0.522874  7.903564  4.414771
