16  
    
  C     2.027265  4.330421  3.336987
  C     1.672482  7.688264  3.060222
  C     0.738804  3.993007  2.700295
  C     0.431749  7.486464  2.416804
  N     2.980786  4.842519  2.543575
  N     2.717964  7.888352  2.235541
  N     0.850020  4.026893  1.390247
  N     0.568056  7.434696  1.103408
  N     0.262403  3.996010  5.201076
  N    -0.137498  7.497676  4.865243
  S    -0.573112  3.693066  3.819457
  S    -0.936455  7.343405  3.408308
  S     2.387885  4.594048  0.996932
  S     2.086513  7.807085  0.683067
  S     1.903226  4.390904  5.081097
  S     1.502795  7.639926  4.790683
