16  
    
  C    -1.743546  2.413422  1.972432
  C    -1.660774  6.245367  2.165601
  C    -2.951682  1.975091  1.290834
  C    -2.922730  5.866450  1.465791
  N    -0.658346  2.494620  1.186213
  N    -0.642065  6.255093  1.307578
  N    -2.785960  1.826766 -0.028262
  N    -2.779130  5.570933  0.145858
  N    -3.583881  2.027101  3.741187
  N    -3.601041  6.153865  3.895285
  S    -4.382366  1.953241  2.315713
  S    -4.360984  5.615172  2.469538
  S    -1.215523  2.135126 -0.369325
  S    -1.223142  5.969075 -0.210584
  S    -1.957029  2.363959  3.677329
  S    -1.988237  6.601117  3.843144
