16  
    
  C     2.385359  4.865589  3.318036
  C     2.421130  8.650567  3.475669
  C     1.200206  4.300713  2.663643
  C     1.117459  8.337741  2.849020
  N     3.395601  5.171922  2.508354
  N     3.477285  8.722247  2.710125
  N     1.267806  4.256020  1.336224
  N     1.235336  8.292836  1.529203
  N     0.516247  4.211546  5.222206
  N     0.756236  8.767433  5.374861
  S    -0.160276  3.879079  3.726702
  S    -0.121428  8.079011  4.097067
  S     2.857635  4.697168  0.958964
  S     2.860792  8.661658  1.152137
  S     2.214931  4.719112  5.125121
  S     2.382421  9.003349  5.175973
