16  
    
  C    -4.442193  1.172658  1.874688
  C    -4.645754  4.712846  1.641910
  C    -5.602161  0.674043  1.208092
  C    -5.833088  4.394099  0.868352
  N    -3.465837  1.507180  1.037352
  N    -3.609046  5.073296  0.894619
  N    -5.657079  0.744824 -0.107377
  N    -5.700120  4.467745 -0.448976
  N    -6.156544  0.653120  3.731897
  N    -6.619340  4.106775  3.248997
  S    -6.916621  0.390372  2.221338
  S    -7.178626  3.804414  1.705265
  S    -4.068273  1.331943 -0.486101
  S    -4.197852  5.018977 -0.645032
  S    -4.515363  1.117873  3.579044
  S    -4.961017  4.479800  3.333880
