16  
    
  C     2.007778  4.630150  3.266492
  C     1.603563  7.834310  3.005773
  C     0.867172  3.949784  2.739144
  C     0.362991  7.561301  2.308189
  N     3.014324  4.888342  2.418180
  N     2.736088  7.922511  2.297384
  N     0.872176  4.048843  1.402366
  N     0.523803  7.444725  0.985011
  N     0.372624  4.059650  5.228884
  N    -0.269143  7.588012  4.876530
  S    -0.470389  3.661614  3.769975
  S    -1.038910  7.271018  3.395666
  S     2.421632  4.470353  0.900905
  S     2.203024  7.723194  0.758521
  S     1.903013  4.728974  5.018927
  S     1.371697  7.829592  4.759054
