16  
    
  C     2.886246  5.322155  3.596011
  C     2.921824  8.837852  3.455106
  C     1.733264  4.846403  2.868979
  C     1.774227  8.319182  2.746872
  N     4.002233  5.413401  2.860781
  N     4.014035  9.050099  2.741056
  N     1.916050  4.899642  1.535637
  N     2.026894  8.082665  1.471422
  N     1.136268  4.691491  5.391392
  N     1.007025  8.629361  5.191924
  S     0.303630  4.796511  3.961313
  S     0.387406  8.066896  3.711463
  S     3.536766  5.189242  1.256460
  S     3.634402  8.544748  1.170126
  S     2.674780  5.330652  5.346455
  S     2.664944  8.795043  5.171463
