16  
    
  C    -2.160701  2.432395  1.935702
  C    -2.189679  5.769261  2.220509
  C    -3.439983  2.032781  1.388648
  C    -3.386802  5.494625  1.566863
  N    -1.171538  2.603691  1.028148
  N    -1.089526  5.796665  1.422159
  N    -3.370953  1.756252  0.093847
  N    -3.325436  5.384083  0.243511
  N    -3.848076  2.354475  3.880721
  N    -3.954680  5.904786  4.031233
  S    -4.692742  1.962409  2.545244
  S    -4.680649  5.426040  2.644604
  S    -1.801970  2.049327 -0.386257
  S    -1.763123  5.769890 -0.144397
  S    -2.232114  2.600208  3.703679
  S    -2.327571  6.142853  3.909658
