16  
    
  C     1.874330  4.158126  3.299230
  C     1.844412  7.749576  3.029850
  C     0.590981  4.106827  2.636375
  C     0.605632  7.367076  2.392824
  N     2.871131  4.282982  2.414571
  N     2.783608  8.190659  2.224855
  N     0.624886  3.861493  1.313002
  N     0.532994  7.499135  1.061403
  N     0.177609  4.056649  5.148913
  N     0.194054  7.333104  4.978580
  S    -0.677458  3.997253  3.762996
  S    -0.671988  7.097769  3.602767
  S     2.221962  4.219669  0.889353
  S     2.128136  8.066735  0.704065
  S     1.781607  4.187272  5.048180
  S     1.758720  7.794581  4.803586
