16  
    
  C    -0.242076  3.092792  2.617499
  C    -0.196888  7.005396  2.347740
  C    -1.428226  2.531057  2.049303
  C    -1.338107  6.331136  1.673059
  N     0.741911  3.303260  1.752413
  N     0.840443  7.367231  1.629740
  N    -1.477930  2.574020  0.714997
  N    -1.119430  6.192418  0.381815
  N    -1.929064  2.862618  4.597860
  N    -1.911887  6.465055  4.215548
  S    -2.718300  2.335126  3.212118
  S    -2.624961  5.978157  2.805223
  S     0.084554  2.938518  0.240970
  S     0.384014  6.871517  0.055224
  S    -0.310068  3.450104  4.362645
  S    -0.370261  7.146797  4.056645
