16  
    
  C     0.567680  3.615146  2.968094
  C     0.475287  7.609200  2.918147
  C    -0.808026  3.565178  2.419975
  C    -0.742817  7.161269  2.239796
  N     1.455467  3.986232  2.055492
  N     1.542267  7.546252  2.114338
  N    -0.899321  3.738348  1.126421
  N    -0.620976  6.938083  0.928929
  N    -1.153070  3.324821  4.933905
  N    -1.314287  7.393876  4.695690
  S    -2.089370  3.329855  3.568154
  S    -2.108184  7.067089  3.289217
  S     0.720766  3.870762  0.557068
  S     1.042431  7.200778  0.614416
  S     0.525730  3.402875  4.652347
  S     0.265296  7.825930  4.568887
