16  
    
  C     1.903738  4.594353  3.316300
  C     1.669275  7.667080  3.081273
  C     0.763294  3.964260  2.648138
  C     0.426891  7.376626  2.342161
  N     2.932753  4.835680  2.507536
  N     2.709478  7.926225  2.274937
  N     0.906801  3.921479  1.317862
  N     0.486387  7.403116  1.003814
  N     0.339133  4.012455  5.268467
  N    -0.210930  7.533707  4.850852
  S    -0.452356  3.717421  3.799800
  S    -0.955044  7.390187  3.359542
  S     2.385561  4.621000  0.980502
  S     2.116504  7.760067  0.740737
  S     1.905028  4.459163  5.063506
  S     1.457571  7.680829  4.812539
