16  
    
  C    -1.588864  2.737772  2.358327
  C    -1.534248  6.245047  2.385679
  C    -2.735441  2.134401  1.661564
  C    -2.803317  5.836849  1.722626
  N    -0.443401  2.764655  1.628659
  N    -0.505345  6.448674  1.549199
  N    -2.497976  1.991725  0.351599
  N    -2.728896  5.677489  0.407256
  N    -3.516510  2.496417  4.099768
  N    -3.361844  6.200575  4.176695
  S    -4.105150  1.938994  2.631836
  S    -4.097896  5.554768  2.843752
  S    -0.898107  2.201041  0.149674
  S    -1.144814  6.111197  0.044977
  S    -1.910304  2.949854  4.059976
  S    -1.742941  6.545839  4.034848
