16  
    
  C     3.105694  5.086862  3.392139
  C     3.204372  8.873072  3.645531
  C     1.988883  4.572287  2.716087
  C     2.007141  8.548066  2.934719
  N     4.156018  5.383516  2.622552
  N     4.255405  9.101817  2.870677
  N     2.216101  4.293361  1.410071
  N     2.126260  8.612411  1.556615
  N     1.203139  4.975349  5.151461
  N     1.474411  8.952503  5.503861
  S     0.650082  4.170193  3.812644
  S     0.692276  8.557349  4.061363
  S     3.692995  4.992917  1.132656
  S     3.810604  8.886719  1.336254
  S     2.829120  5.349775  5.047977
  S     3.141716  9.285023  5.250035
