16  
    
  C     0.625013  3.598437  2.699829
  C     0.605349  7.670027  2.636958
  C    -0.640966  3.231685  2.141858
  C    -0.534771  7.024392  2.086942
  N     1.595022  3.818540  1.844091
  N     1.593603  8.030825  1.793986
  N    -0.715081  3.468223  0.830251
  N    -0.493219  6.848719  0.762093
  N    -1.064262  3.232544  4.696933
  N    -1.008893  7.264873  4.621686
  S    -1.924415  3.052826  3.304604
  S    -1.794882  6.638211  3.293849
  S     0.900581  3.643337  0.324585
  S     1.012540  7.574175  0.305184
  S     0.604611  3.496101  4.426724
  S     0.547752  7.801573  4.444108
