16  
    
  C    -1.472563  2.557916  2.267314
  C    -1.425383  6.644546  2.193025
  C    -2.570199  1.980080  1.596971
  C    -2.616391  6.127443  1.658205
  N    -0.448318  2.984725  1.490463
  N    -0.386123  6.754445  1.339946
  N    -2.309093  1.717826  0.312446
  N    -2.540149  5.815370  0.370665
  N    -3.416917  2.455277  3.932072
  N    -2.981247  6.233474  4.206646
  S    -3.935256  1.737254  2.555220
  S    -3.920912  6.115885  2.825583
  S    -0.801003  2.334230 -0.020952
  S    -1.002316  6.214583 -0.087724
  S    -1.868258  3.023264  3.920771
  S    -1.467177  6.813111  3.886318
