16  
    
  C     3.078935  5.290803  3.413351
  C     3.705351  8.983029  3.396027
  C     1.956276  4.679970  2.792335
  C     2.444650  8.474574  2.867453
  N     4.134612  5.435781  2.623335
  N     4.522141  9.170067  2.391126
  N     2.058895  4.432008  1.513062
  N     2.360173  8.408260  1.565593
  N     1.298615  4.987045  5.223611
  N     1.999331  8.934739  5.357649
  S     0.619620  4.301219  3.830650
  S     1.159164  8.556137  3.994008
  S     3.518389  5.011607  1.112078
  S     3.786216  8.753898  0.966073
  S     2.867540  5.495830  5.103874
  S     3.579370  9.448747  5.153914
