16  
    
  C    -4.139962  1.423848  1.917753
  C    -3.928346  5.218374  1.958227
  C    -5.444463  1.137334  1.274774
  C    -5.236727  4.869153  1.379388
  N    -3.124570  1.399535  1.076533
  N    -2.917304  4.988500  1.086968
  N    -5.392246  0.998809 -0.036876
  N    -5.114637  4.365919  0.156984
  N    -5.907456  1.369615  3.813700
  N    -5.750595  5.342465  3.911184
  S    -6.737395  1.057431  2.444268
  S    -6.544023  4.766820  2.574545
  S    -3.705305  1.169195 -0.472188
  S    -3.524799  4.415127 -0.340710
  S    -4.294813  1.712091  3.687639
  S    -4.119084  5.720919  3.664159
