16  
    
  C    -1.606628  2.642209  2.393763
  C    -1.680402  6.162726  2.404213
  C    -2.843774  2.240211  1.684677
  C    -2.877769  5.704059  1.721423
  N    -0.499843  2.771880  1.623596
  N    -0.667184  6.353925  1.565429
  N    -2.569705  1.841247  0.444611
  N    -2.693259  5.701137  0.390191
  N    -3.530544  2.461454  4.124779
  N    -3.472521  6.009784  4.285213
  S    -4.243392  2.069651  2.664752
  S    -4.155831  5.425621  2.873107
  S    -0.963441  2.249995  0.091196
  S    -1.107008  6.021903 -0.003107
  S    -1.915720  2.875816  4.106446
  S    -1.847584  6.487213  4.141645
