16  
    
  C     0.556496  3.484787  2.800995
  C     0.789266  7.672148  2.681290
  C    -0.666875  3.133838  2.058102
  C    -0.465013  7.207700  2.001343
  N     1.558288  3.934835  2.060531
  N     1.743758  8.031913  1.801532
  N    -0.521427  3.155167  0.712019
  N    -0.361907  7.214382  0.675296
  N    -1.305180  3.256277  4.552220
  N    -0.794492  6.777106  4.536934
  S    -1.986528  2.780607  3.135670
  S    -1.618659  6.551818  3.077801
  S     1.109060  3.567616  0.483262
  S     1.082269  7.800520  0.237604
  S     0.290140  3.682436  4.488419
  S     0.664662  7.600289  4.427913
