16  
    
  C    -4.882209  0.975606  1.761795
  C    -4.752404  4.692169  1.783477
  C    -6.041427  0.424881  1.084188
  C    -5.869214  4.027833  1.129824
  N    -3.857479  1.328760  0.948557
  N    -3.778882  5.096411  0.961231
  N    -5.875713  0.186489 -0.212821
  N    -5.724519  3.843274 -0.182955
  N    -6.767603  0.952743  3.475250
  N    -6.670738  4.586731  3.541812
  S    -7.304057  0.113025  2.142744
  S    -7.264186  3.899603  2.140066
  S    -4.343695  0.857239 -0.586101
  S    -4.253950  4.538893 -0.542457
  S    -5.242395  1.493107  3.381645
  S    -5.119624  5.177287  3.411032
