16  
    
  C     2.085606  4.546869  2.954825
  C     2.067001  8.102533  3.189237
  C     0.940624  3.853585  2.400393
  C     0.919121  7.611028  2.519996
  N     3.181413  4.588048  2.177253
  N     3.162977  8.095256  2.434849
  N     1.095443  3.654327  1.076183
  N     1.096291  7.226974  1.255105
  N     0.251038  4.470030  4.852743
  N     0.033747  8.212130  4.820735
  S    -0.510875  3.954469  3.495747
  S    -0.541378  7.459228  3.401172
  S     2.638099  4.006085  0.741622
  S     2.650125  7.612178  0.869476
  S     1.908557  4.769243  4.677647
  S     1.700186  8.360211  4.890851
