16  
    
  C    -4.458825  1.439548  1.880860
  C    -4.659059  4.834455  1.676606
  C    -5.578637  0.756309  1.336563
  C    -5.736437  4.307612  0.825486
  N    -3.477201  1.819918  1.067150
  N    -3.553496  5.224019  1.024117
  N    -5.555328  0.777804  0.019346
  N    -5.485734  4.410932 -0.478570
  N    -6.033229  0.871435  3.882300
  N    -6.345732  3.928179  3.292855
  S    -6.800837  0.287970  2.446419
  S    -7.086839  3.767058  1.785220
  S    -4.117259  1.393823 -0.385515
  S    -3.975788  5.049653 -0.553567
  S    -4.424880  1.346591  3.617674
  S    -4.913873  4.730228  3.371985
