16  
    
  C     2.956236  5.220399  3.637611
  C     2.867298  8.871994  3.298514
  C     1.628059  5.026944  3.108249
  C     1.635359  8.441114  2.733548
  N     3.909100  4.828293  2.775411
  N     3.849931  8.851001  2.372129
  N     1.572305  4.813185  1.777928
  N     1.619865  7.960945  1.456297
  N     1.294702  5.534561  5.704469
  N     1.068364  8.813831  5.228991
  S     0.404938  5.363701  4.316430
  S     0.304551  8.511179  3.807149
  S     3.178552  4.709373  1.323440
  S     3.217623  8.112129  1.056396
  S     2.938067  5.421243  5.417085
  S     2.726596  9.043383  5.033662
