16  
    
  C    -1.732034  2.396178  2.011225
  C    -1.884087  6.485279  2.138190
  C    -3.057043  2.103240  1.410688
  C    -2.881248  5.544755  1.664350
  N    -0.773065  2.563130  1.125893
  N    -0.937214  6.790304  1.243625
  N    -3.013741  1.953433  0.089082
  N    -2.659348  5.143322  0.368845
  N    -3.414371  2.088283  3.971510
  N    -3.570403  6.133371  4.111495
  S    -4.316919  1.874481  2.599195
  S    -4.215691  5.413861  2.753373
  S    -1.420972  2.146416 -0.372959
  S    -1.297050  5.888598 -0.122273
  S    -1.816716  2.604952  3.719444
  S    -2.152927  6.987500  3.868654
