16  
    
  C     0.194082  3.526361  2.325676
  C     0.157313  7.428754  2.856805
  C    -1.093575  3.137221  1.696089
  C    -0.929786  6.736860  2.254806
  N     1.176840  3.745656  1.429648
  N     1.241059  7.584130  2.096147
  N    -1.096268  3.243054  0.377282
  N    -0.640571  6.364968  1.014526
  N    -1.515778  3.164978  4.226600
  N    -1.620133  7.234287  4.749359
  S    -2.364426  2.970258  2.819701
  S    -2.302295  6.592340  3.347584
  S     0.509537  3.482166 -0.084416
  S     0.883778  7.021996  0.554288
  S     0.103872  3.442158  4.050763
  S    -0.077469  7.839660  4.530031
