16  
    
  C    -1.731877  2.299515  1.982106
  C    -1.703248  6.347009  2.174385
  C    -2.971963  2.088510  1.253529
  C    -2.855498  5.770952  1.448703
  N    -0.732109  2.488158  1.127705
  N    -0.651977  6.432712  1.366061
  N    -2.884596  1.843576 -0.067575
  N    -2.750327  5.666699  0.138929
  N    -3.528583  2.254304  3.795876
  N    -3.627055  6.210361  3.896532
  S    -4.306519  1.886569  2.342713
  S    -4.222775  5.573917  2.487840
  S    -1.286681  2.206706 -0.418920
  S    -1.177877  5.897523 -0.149495
  S    -1.859350  2.373371  3.684255
  S    -2.065691  6.788376  3.765461
