16  
    
  C    -4.140711  1.594358  1.858012
  C    -3.917330  5.167710  1.883394
  C    -5.358992  1.040189  1.321717
  C    -5.038333  4.499201  1.375983
  N    -3.223210  1.695167  0.926359
  N    -2.852681  5.278234  1.070912
  N    -5.287744  0.601293  0.072168
  N    -4.916698  4.078692  0.125898
  N    -5.902349  1.753116  3.858352
  N    -5.755855  5.355122  3.760652
  S    -6.651892  0.953184  2.583784
  S    -6.488370  4.685035  2.482831
  S    -3.806996  1.051446 -0.484261
  S    -3.413419  4.628222 -0.438016
  S    -4.241025  1.908727  3.648397
  S    -4.149698  5.706104  3.590984
