16  
    
  C     2.014288  4.402974  3.015807
  C     1.991373  7.882354  3.148953
  C     0.752975  3.906830  2.455638
  C     0.800855  7.538495  2.415116
  N     3.077566  4.309063  2.171820
  N     3.108244  8.028695  2.456663
  N     0.811762  3.827365  1.094187
  N     1.061207  7.509367  1.103823
  N     0.275573  4.265487  4.995684
  N     0.120630  7.804643  4.929299
  S    -0.532375  3.957740  3.548650
  S    -0.567928  7.358073  3.453676
  S     2.374945  3.929157  0.742438
  S     2.670842  7.805447  0.858484
  S     1.864399  4.783505  4.742501
  S     1.756376  8.230474  4.808000
