16  
    
  C    -0.307415  3.186699  2.629168
  C    -0.229895  7.102811  2.424695
  C    -1.517042  2.645752  2.044029
  C    -1.344685  6.258200  1.838024
  N     0.631880  3.448151  1.742502
  N     0.736216  7.282805  1.562140
  N    -1.513923  2.461297  0.718464
  N    -1.182987  5.915741  0.579796
  N    -1.942689  2.902121  4.628444
  N    -1.986740  6.738115  4.232726
  S    -2.792980  2.504921  3.233676
  S    -2.599968  5.898146  2.913529
  S     0.027840  2.923306  0.245221
  S     0.186826  6.642291  0.089631
  S    -0.295727  3.301366  4.388468
  S    -0.428266  7.350896  4.080458
