16  
    
  C     0.074377  3.373116  2.418474
  C    -0.023983  7.187650  2.716354
  C    -1.066881  2.921890  1.774484
  C    -1.197173  6.727222  2.052725
  N     1.140811  3.520056  1.649286
  N     1.031589  7.454866  1.930063
  N    -0.952947  2.890709  0.451394
  N    -1.045337  6.740235  0.730582
  N    -1.680928  2.926592  4.239681
  N    -1.775803  6.824664  4.632513
  S    -2.358577  2.403706  2.811646
  S    -2.526946  6.476701  3.182700
  S     0.613120  3.348397  0.079622
  S     0.565759  7.085909  0.427335
  S    -0.113220  3.494129  4.178038
  S    -0.175656  7.310692  4.466288
