16  
    
  C    -4.328798  1.761013  1.918777
  C    -4.358902  5.199920  1.758756
  C    -5.476713  1.087654  1.288010
  C    -5.610980  4.776353  1.216449
  N    -3.205790  1.713052  1.204461
  N    -3.383494  5.245656  0.843007
  N    -5.206246  0.704303  0.035235
  N    -5.617574  4.549684 -0.077006
  N    -6.067840  1.483706  3.684686
  N    -6.108720  5.139591  3.660927
  S    -6.833363  0.987287  2.254587
  S    -6.960175  4.650814  2.233480
  S    -3.622524  0.978364 -0.257151
  S    -4.078920  4.838261 -0.607304
  S    -4.503220  2.142900  3.608343
  S    -4.432240  5.635667  3.431516
