16  
    
  C    -1.943185  2.244984  2.003022
  C    -1.961947  5.958614  2.105203
  C    -3.150575  1.839886  1.367146
  C    -3.232443  5.765354  1.484968
  N    -0.859895  2.345437  1.237509
  N    -0.953520  6.021733  1.275276
  N    -3.070940  1.895226  0.033902
  N    -3.210977  5.522544  0.160608
  N    -3.782332  2.386208  3.806752
  N    -3.688062  5.671728  4.100689
  S    -4.495848  1.759353  2.433811
  S    -4.510329  5.583365  2.687927
  S    -1.473929  2.125084 -0.348196
  S    -1.611242  5.686563 -0.198336
  S    -2.132502  2.442570  3.776607
  S    -2.102491  6.058035  3.908333
