16  
    
  C     0.738206  3.676102  3.143487
  C     1.125405  7.570008  2.905365
  C    -0.482152  3.448490  2.452240
  C     0.051842  7.002001  2.247415
  N     1.711820  4.073271  2.337335
  N     2.209112  7.622600  2.156724
  N    -0.379727  3.340934  1.136611
  N     0.231591  6.747200  0.961480
  N    -0.979690  3.264446  5.028388
  N    -0.782964  7.566703  4.595534
  S    -1.765620  3.107021  3.627353
  S    -1.386634  6.880517  3.178309
  S     1.203345  3.671715  0.819655
  S     1.800935  7.173458  0.637107
  S     0.663090  3.669217  4.923134
  S     0.855073  7.958659  4.536120
