16  
    
  C     2.888653  5.226885  3.302180
  C     2.924916  9.056536  3.427303
  C     1.680768  4.666568  2.702327
  C     1.770056  8.475786  2.767772
  N     3.805660  5.525536  2.412212
  N     3.838669  9.463352  2.561359
  N     1.826669  4.279270  1.440841
  N     1.789534  8.344619  1.460711
  N     1.397406  4.659944  5.212939
  N     1.148963  8.398075  5.224785
  S     0.490693  4.195553  3.844457
  S     0.588947  7.825298  3.779918
  S     3.275075  5.002109  0.955989
  S     3.345434  8.894111  1.035354
  S     2.788221  5.517300  4.977715
  S     2.638082  9.119814  5.229389
