16  
    
  C    -0.322561  3.345599  2.718038
  C    -0.463158  6.945431  2.411123
  C    -1.611677  3.225857  2.051168
  C    -1.630496  6.413940  1.868742
  N     0.654848  3.406336  1.821607
  N     0.544774  7.136755  1.583022
  N    -1.614106  2.968692  0.734139
  N    -1.602058  6.269703  0.544675
  N    -2.092954  3.238363  4.658167
  N    -2.161276  6.722663  4.359234
  S    -2.881747  2.884944  3.205368
  S    -2.963074  6.161991  3.017851
  S    -0.025467  3.260466  0.295071
  S    -0.086126  6.751922  0.105442
  S    -0.465014  3.704766  4.422660
  S    -0.571000  7.106770  4.158194
