16  
    
  C    -2.411067  1.991995  2.054687
  C    -2.557840  5.725169  2.078465
  C    -3.721621  1.761848  1.438273
  C    -3.781703  5.443470  1.378030
  N    -1.385567  1.841945  1.197001
  N    -1.477517  5.746339  1.312595
  N    -3.657672  1.672361  0.087898
  N    -3.670209  5.121224  0.082847
  N    -4.094614  2.265028  4.031328
  N    -4.384723  5.446314  3.909212
  S    -4.949858  2.119106  2.625627
  S    -5.142563  5.110355  2.483836
  S    -2.069983  1.716891 -0.339122
  S    -2.094467  5.446514 -0.259360
  S    -2.426388  2.376583  3.723871
  S    -2.724942  5.848124  3.792994
