16  
    
  C    -3.310232  1.908242  2.009574
  C    -3.102836  5.547438  2.093679
  C    -4.597088  1.528459  1.439826
  C    -4.209034  4.844907  1.462640
  N    -2.362385  2.242021  1.144500
  N    -2.054005  5.709027  1.244666
  N    -4.486337  1.337320  0.116996
  N    -4.048381  4.543306  0.181029
  N    -4.937120  1.484134  3.954978
  N    -4.976720  5.214879  3.923193
  S    -5.786415  1.070890  2.581498
  S    -5.533494  4.489632  2.582328
  S    -2.978317  1.782968 -0.316308
  S    -2.530567  5.237966 -0.234385
  S    -3.304438  1.865075  3.731325
  S    -3.420383  5.789617  3.755874
