16  
    
  C    -4.438372  1.463387  1.911569
  C    -4.660080  4.799533  1.640677
  C    -5.576625  0.769633  1.332119
  C    -5.737160  4.334828  0.794836
  N    -3.465235  1.821106  1.048690
  N    -3.577609  5.233746  1.008510
  N    -5.581225  0.774073  0.020274
  N    -5.490579  4.444853 -0.516301
  N    -6.055813  0.866089  3.887476
  N    -6.375036  3.888204  3.311853
  S    -6.818816  0.263600  2.448858
  S    -7.114571  3.757292  1.787393
  S    -4.078061  1.388837 -0.419439
  S    -3.959291  5.043689 -0.565708
  S    -4.443406  1.303496  3.618872
  S    -4.910947  4.712832  3.388364
