16  
    
  C    -5.705814  0.898119  1.525127
  C    -5.915330  4.727753  1.360268
  C    -6.911512  0.494777  0.868646
  C    -7.163814  4.251727  0.658012
  N    -4.559742  1.013000  0.803449
  N    -4.871000  4.915138  0.555212
  N    -6.723091  0.254764 -0.417084
  N    -6.997838  4.106209 -0.672011
  N    -7.553262  0.570779  3.371982
  N    -7.606068  4.522666  3.210658
  S    -8.249367  0.183485  1.901535
  S    -8.411742  3.987651  1.833545
  S    -5.127767  0.596001 -0.712493
  S    -5.396976  4.478764 -0.935350
  S    -5.955748  1.049285  3.249254
  S    -5.931664  4.773680  3.093897
