16  
    
  C    -2.045305  2.342423  1.964947
  C    -2.097786  5.776047  2.172442
  C    -3.316306  1.996033  1.394010
  C    -3.352424  5.548864  1.593638
  N    -0.997001  2.450523  1.124758
  N    -1.059060  5.830892  1.362265
  N    -3.200520  1.739209  0.092240
  N    -3.303808  5.584562  0.257371
  N    -3.818832  2.371319  3.878057
  N    -3.781590  5.796641  4.087643
  S    -4.620995  1.864529  2.489924
  S    -4.721475  5.447736  2.693037
  S    -1.661524  2.113189 -0.344709
  S    -1.640455  5.717905 -0.170078
  S    -2.161397  2.514383  3.696422
  S    -2.147833  6.115791  3.862605
