16  
    
  C    -1.928456  2.417456  2.566576
  C    -1.698529  5.837122  2.313953
  C    -3.105536  1.951370  1.878767
  C    -2.933739  5.772219  1.594284
  N    -0.858731  2.633150  1.791423
  N    -0.533139  5.861309  1.566637
  N    -2.970230  1.980879  0.552491
  N    -2.740953  5.694823  0.273747
  N    -3.700317  2.113875  4.395668
  N    -3.616264  5.535936  4.142104
  S    -4.452603  1.980482  2.938720
  S    -4.320554  5.335259  2.661343
  S    -1.432030  2.467333  0.223789
  S    -1.112678  5.886845  0.035906
  S    -2.083062  2.436790  4.314159
  S    -1.986678  5.863756  4.010411
