16  
    
  C     3.379419  5.366861  3.545971
  C     3.667176  9.325648  3.481839
  C     2.154485  4.891754  2.883318
  C     2.514385  8.678242  2.903513
  N     4.358177  5.589669  2.666488
  N     4.626821  9.487200  2.592350
  N     2.208376  4.809207  1.551283
  N     2.543750  8.407008  1.621479
  N     1.600763  4.911903  5.463415
  N     1.927874  8.725280  5.302297
  S     0.873341  4.541211  4.044205
  S     1.233049  8.129490  3.917102
  S     3.766039  5.136576  1.106448
  S     3.961801  8.964929  1.100814
  S     3.225081  5.352015  5.312362
  S     3.417945  9.420878  5.206523
