16  
    
  C     2.078451  4.628831  2.924266
  C     2.217574  8.558656  3.105934
  C     0.808417  4.300006  2.321720
  C     1.022307  8.032853  2.470436
  N     3.144145  4.765225  2.131087
  N     3.267574  8.696198  2.329645
  N     0.953805  4.079265  1.007449
  N     1.246256  7.763904  1.180986
  N     0.293082  4.414053  4.895203
  N     0.423878  8.469947  4.956748
  S    -0.418065  3.856908  3.440224
  S    -0.253377  7.794668  3.576906
  S     2.487696  4.460828  0.649409
  S     2.823115  8.094953  0.790751
  S     1.930504  4.847625  4.653102
  S     2.043079  8.908360  4.772207
