16  
    
  C    -1.514841  2.768499  2.083725
  C    -1.189681  6.753299  2.166604
  C    -2.566936  2.085699  1.439315
  C    -2.438060  6.333958  1.606278
  N    -0.516141  3.174070  1.273054
  N    -0.198793  6.824503  1.289802
  N    -2.256817  1.721142  0.189502
  N    -2.533803  6.235338  0.269116
  N    -3.370093  2.417977  3.843562
  N    -2.905628  6.723605  4.227194
  S    -3.905193  1.636803  2.500735
  S    -3.715781  6.283955  2.872802
  S    -0.822703  2.418523 -0.181362
  S    -0.916408  6.366381 -0.203851
  S    -1.870537  3.069612  3.746311
  S    -1.303676  7.105961  3.943777
