16  
    
  C    -1.548270  3.002697  1.976739
  C    -0.991611  6.871008  2.315722
  C    -2.583059  2.196751  1.393930
  C    -2.291965  6.528852  1.777444
  N    -0.468271  3.299008  1.205152
  N    -0.139367  7.153829  1.341011
  N    -2.432984  2.145793  0.064497
  N    -2.304771  6.343721  0.450527
  N    -3.322061  2.533199  3.833415
  N    -2.709756  6.795935  4.342744
  S    -3.860525  1.788355  2.430862
  S    -3.557606  6.634438  2.957841
  S    -0.935160  2.749222 -0.320756
  S    -0.764854  6.669311 -0.120892
  S    -1.893720  3.369427  3.648997
  S    -1.115825  7.121370  4.046493
