16  
    
  C     1.424466  4.598183  3.365513
  C     1.388098  7.988747  3.140017
  C     0.088534  4.080209  2.913256
  C     0.170423  7.846541  2.452117
  N     2.390420  4.543178  2.447417
  N     2.443491  7.978279  2.340155
  N     0.024868  3.919442  1.585929
  N     0.305686  7.754275  1.136653
  N    -0.119506  4.598475  5.467713
  N    -0.426936  7.965725  4.946152
  S    -1.119221  4.145163  4.183118
  S    -1.196910  7.706135  3.469703
  S     1.517393  4.293281  1.009030
  S     1.910864  7.710552  0.751475
  S     1.576151  4.722461  5.071678
  S     1.221051  8.141744  4.837152
