16  
    
  C    -2.372676  2.132014  2.023709
  C    -2.501830  5.676421  2.119942
  C    -3.719619  1.941786  1.443695
  C    -3.669157  5.289570  1.395993
  N    -1.388450  1.968506  1.143632
  N    -1.439591  5.786782  1.261368
  N    -3.719218  1.620280  0.156344
  N    -3.599263  5.173373  0.063235
  N    -4.105149  2.203632  3.915416
  N    -4.398636  5.492834  3.880229
  S    -5.043285  2.107318  2.547872
  S    -5.113199  5.298238  2.430306
  S    -2.157642  1.573883 -0.304771
  S    -1.913337  5.382266 -0.242805
  S    -2.436360  2.353822  3.744570
  S    -2.795553  5.971069  3.809810
