16  
    
  C     2.148998  4.430550  2.953823
  C     2.148603  8.522876  3.079320
  C     0.964752  3.909967  2.284020
  C     0.998344  7.727334  2.637600
  N     3.256074  4.545793  2.227288
  N     3.097053  8.682558  2.155220
  N     1.175646  3.599451  1.009468
  N     1.080922  7.208638  1.413397
  N     0.416681  4.215273  4.753196
  N     0.258623  8.521376  4.902274
  S    -0.425737  3.899200  3.355532
  S    -0.407658  7.828572  3.573856
  S     2.766328  4.144035  0.671238
  S     2.586441  7.741771  0.852448
  S     1.991666  4.558731  4.699679
  S     1.811673  9.105186  4.762940
