16  
    
  C    -5.912305  0.796548  1.545809
  C    -6.079437  4.390608  1.719143
  C    -7.075696  0.190170  0.921988
  C    -7.335943  4.075994  0.950430
  N    -5.050428  1.255437  0.642126
  N    -4.966424  4.658916  1.013102
  N    -7.016754  0.041571 -0.411601
  N    -7.070605  4.026171 -0.368407
  N    -7.488195  0.289269  3.510651
  N    -7.995214  4.106122  3.493455
  S    -8.354332 -0.194136  2.061411
  S    -8.717252  3.898648  2.003661
  S    -5.637639  0.816628 -0.825419
  S    -5.492111  4.465438 -0.542319
  S    -6.013085  1.099517  3.258418
  S    -6.414231  4.619070  3.391021
