16  
    
  C     2.052149  4.605671  3.292424
  C     1.601516  7.784605  3.027160
  C     0.848560  3.984599  2.732386
  C     0.378677  7.540017  2.329972
  N     2.988101  4.934805  2.439935
  N     2.720833  7.927746  2.287384
  N     0.864465  4.026414  1.432319
  N     0.534741  7.441628  0.990488
  N     0.390290  4.053612  5.225926
  N    -0.260849  7.578787  4.871092
  S    -0.486781  3.660450  3.770720
  S    -1.042905  7.299577  3.401934
  S     2.425322  4.486900  0.883344
  S     2.205847  7.719908  0.756483
  S     1.899255  4.685749  5.020605
  S     1.382303  7.803671  4.748533
