16  
    
  C    -5.377721  1.269461  1.412135
  C    -5.359253  4.566097  1.597257
  C    -6.608308  0.900935  0.834097
  C    -6.648172  4.190912  1.096037
  N    -4.330707  1.224369  0.592635
  N    -4.456939  4.714497  0.642480
  N    -6.494619  0.678686 -0.486702
  N    -6.656686  3.946600 -0.208282
  N    -7.128283  1.080208  3.385910
  N    -6.879655  4.823529  3.511690
  S    -7.894169  0.753761  1.953262
  S    -7.823508  4.061620  2.322783
  S    -4.916044  0.732974 -0.843860
  S    -5.126994  4.334201 -0.788046
  S    -5.462793  1.326816  3.140582
  S    -5.220329  4.723214  3.294575
