16  
    
  C     1.648608  4.427134  3.461316
  C     1.423373  7.961170  3.063831
  C     0.324442  4.303286  2.883468
  C     0.206514  7.455531  2.364076
  N     2.604767  4.351405  2.510866
  N     2.425757  8.356086  2.270312
  N     0.310212  3.920779  1.612577
  N     0.317016  7.393435  1.037585
  N    -0.026478  4.655598  5.352852
  N    -0.383650  7.693462  4.887943
  S    -0.994632  4.216775  4.072540
  S    -1.143465  7.198477  3.502383
  S     1.897157  4.051501  1.075370
  S     1.881983  7.956877  0.774498
  S     1.584826  4.874229  5.112234
  S     1.194400  8.220520  4.756195
