16  
    
  C     3.112842  5.069650  3.399822
  C     3.205311  8.955520  3.765970
  C     1.850927  4.933731  2.753479
  C     1.877816  8.677459  3.320746
  N     4.177607  5.118189  2.601438
  N     4.062326  8.743393  2.762370
  N     1.984178  4.591361  1.469573
  N     1.736363  8.309694  2.014784
  N     1.292366  5.017475  5.259503
  N     1.557879  9.408072  5.783221
  S     0.535543  4.535151  3.856781
  S     0.635747  8.807009  4.480326
  S     3.555306  4.743779  1.053010
  S     3.201461  8.198787  1.424347
  S     2.962840  5.219210  5.127412
  S     3.208624  9.426484  5.511120
