16  
    
  C    -3.704686  1.792726  1.837283
  C    -3.922346  5.319868  1.818860
  C    -4.989300  1.420777  1.177835
  C    -5.113233  4.931829  1.049290
  N    -2.691314  2.083686  1.028394
  N    -2.868737  5.690585  1.068935
  N    -4.884634  1.356970 -0.145735
  N    -4.909213  4.939811 -0.262498
  N    -5.408764  1.558123  3.697051
  N    -5.769525  4.846041  3.508615
  S    -6.173933  1.124989  2.310406
  S    -6.478730  4.441878  2.053345
  S    -3.355222  1.795891 -0.537227
  S    -3.359360  5.470552 -0.484369
  S    -3.780534  1.840658  3.591393
  S    -4.230329  5.455383  3.490159
