16  
    
  C     1.064826  4.359707  2.931131
  C     1.673140  8.545573  2.964168
  C    -0.047486  3.911899  2.147979
  C     0.441663  8.140211  2.364900
  N     2.102672  4.784930  2.244222
  N     2.661664  8.644654  2.103664
  N     0.163770  3.767160  0.848073
  N     0.544372  7.826628  1.079971
  N    -0.723068  3.893847  4.660203
  N    -0.044763  8.397337  4.815638
  S    -1.425912  3.572478  3.179726
  S    -0.863739  8.050775  3.418435
  S     1.786441  4.303020  0.632209
  S     2.111652  8.246968  0.614874
  S     0.803735  4.349066  4.699352
  S     1.536687  8.902321  4.652770
