16  
    
  C     0.872894  3.825051  2.855255
  C     1.100265  7.614938  3.030413
  C    -0.377952  3.453382  2.341337
  C    -0.098819  7.154525  2.447304
  N     1.828860  3.846473  1.967677
  N     2.131690  7.655126  2.213074
  N    -0.344110  3.076223  1.042739
  N     0.015625  6.762924  1.201009
  N    -0.710428  3.946847  4.902238
  N    -0.644186  7.490747  4.880230
  S    -1.558907  3.360316  3.630847
  S    -1.418426  7.051774  3.502405
  S     1.218355  3.340747  0.559328
  S     1.600561  7.081404  0.792535
  S     0.936287  4.327654  4.587006
  S     0.940627  7.997566  4.761397
