16  
    
  C    -0.366019  3.439756  2.610079
  C    -0.336892  6.921651  2.404017
  C    -1.682727  3.051661  2.055731
  C    -1.626168  6.452790  1.850027
  N     0.652236  3.387648  1.746566
  N     0.564764  7.208323  1.501865
  N    -1.624728  3.045172  0.709717
  N    -1.675506  6.376415  0.527501
  N    -2.020456  3.218278  4.573821
  N    -2.022809  6.696658  4.305613
  S    -2.921933  2.912414  3.201042
  S    -2.833597  6.220008  2.937218
  S    -0.054567  3.225478  0.235014
  S    -0.136197  6.725427  0.048138
  S    -0.403842  3.613339  4.348984
  S    -0.418533  7.130236  4.122324
