16  
    
  C    -3.587200  1.653257  2.071796
  C    -3.279570  5.362178  2.058415
  C    -4.671015  1.094968  1.388595
  C    -4.565251  4.957660  1.546349
  N    -2.493702  1.800732  1.335694
  N    -2.262175  5.316586  1.207816
  N    -4.421927  0.789954  0.115748
  N    -4.543480  4.699909  0.226900
  N    -5.508084  1.449975  3.840144
  N    -5.054438  5.359473  3.970677
  S    -6.119169  0.978247  2.389686
  S    -5.883377  4.937527  2.641615
  S    -2.816528  1.243424 -0.176231
  S    -3.029530  4.973035 -0.284378
  S    -3.962810  1.929757  3.732391
  S    -3.401365  5.715497  3.748957
