16  
    
  C    -2.917667  2.517485  1.898559
  C    -2.739617  5.844735  2.069942
  C    -4.071387  1.987235  1.214176
  C    -3.937707  5.416616  1.425622
  N    -1.802317  2.533338  1.175836
  N    -1.737180  5.972337  1.241842
  N    -3.890922  1.885296 -0.085163
  N    -3.821351  5.160975  0.096924
  N    -4.687702  1.867904  3.693597
  N    -4.537769  5.721791  3.961872
  S    -5.361462  1.538958  2.189041
  S    -5.247424  5.241548  2.541691
  S    -2.245554  2.182235 -0.349698
  S    -2.260710  5.475337 -0.315319
  S    -3.081160  2.345255  3.598790
  S    -2.900224  6.233346  3.777565
