16  
    
  C    -5.357341  1.162134  1.301184
  C    -5.473466  4.804742  1.571933
  C    -6.564356  0.668580  0.657879
  C    -6.730301  4.494701  0.909635
  N    -4.354895  1.473498  0.486609
  N    -4.434409  4.951480  0.753339
  N    -6.415333  0.428405 -0.647074
  N    -6.645741  4.314985 -0.418239
  N    -7.169352  0.824004  3.180648
  N    -7.239739  4.631970  3.499121
  S    -7.810949  0.075005  1.771693
  S    -8.026362  4.141022  2.083396
  S    -4.874349  0.988418 -1.030892
  S    -5.044984  4.624209 -0.785701
  S    -5.530383  1.206845  3.015512
  S    -5.604321  4.864786  3.362940
