16  
    
  C     2.025345  4.605082  3.276838
  C     1.623425  7.902716  3.064550
  C     0.816887  4.032342  2.681532
  C     0.413320  7.493494  2.344773
  N     3.038051  4.608245  2.439081
  N     2.680164  8.150888  2.264571
  N     0.884301  3.940030  1.355036
  N     0.479510  7.457322  0.992384
  N     0.300395  4.257469  5.217133
  N    -0.314600  7.635448  4.815639
  S    -0.458733  3.710890  3.841988
  S    -0.934663  7.059645  3.337346
  S     2.478144  4.358890  0.901248
  S     2.100493  7.800083  0.755617
  S     1.845336  4.927414  4.934977
  S     1.276057  8.097364  4.779992
