16  
    
  C     2.899052  5.062931  3.617180
  C     2.922343  8.662324  3.474806
  C     1.587331  4.862002  3.014786
  C     1.700768  8.328911  2.806912
  N     3.929819  4.823208  2.817906
  N     4.028565  8.731561  2.719637
  N     1.650005  4.829698  1.678468
  N     1.853726  8.155339  1.461887
  N     1.218385  5.435484  5.518575
  N     1.094589  8.719301  5.270804
  S     0.319629  5.188375  4.124008
  S     0.305852  8.450936  3.815072
  S     3.302105  4.913555  1.323047
  S     3.533128  8.273011  1.183919
  S     2.889763  5.269642  5.313329
  S     2.727347  9.056253  5.175932
