16  
    
  C     0.627622  3.590968  2.691737
  C     0.610503  7.676711  2.638770
  C    -0.642832  3.241270  2.149411
  C    -0.535815  7.017379  2.090434
  N     1.601866  3.829782  1.847307
  N     1.599436  8.033615  1.795785
  N    -0.715033  3.463420  0.838178
  N    -0.496953  6.845928  0.762987
  N    -1.059908  3.233279  4.698745
  N    -1.012510  7.271647  4.623255
  S    -1.928813  3.056909  3.309590
  S    -1.796713  6.636786  3.293480
  S     0.902345  3.645019  0.321718
  S     1.006203  7.564801  0.308209
  S     0.608049  3.495566  4.422891
  S     0.547723  7.806441  4.444975
