16  
    
  C     3.100560  5.188905  3.388257
  C     3.201515  8.924469  3.614282
  C     1.991839  4.504548  2.743578
  C     1.994063  8.593438  2.892595
  N     4.177389  5.341385  2.635764
  N     4.309222  9.121440  2.937633
  N     2.154873  4.357040  1.464658
  N     2.151430  8.611510  1.588382
  N     1.283933  4.882373  5.158011
  N     1.477577  8.969117  5.455859
  S     0.659477  4.205651  3.746340
  S     0.668597  8.550242  4.065244
  S     3.699499  4.953365  1.121488
  S     3.871425  8.926521  1.354568
  S     2.866699  5.361868  5.081116
  S     3.087718  9.271984  5.283189
