16  
    
  C    -0.174973  3.342989  2.611318
  C    -0.112533  7.023764  2.489554
  C    -1.228823  2.519320  1.990786
  C    -1.357582  6.606627  1.787939
  N     0.791181  3.723781  1.777336
  N     0.960871  7.283748  1.759845
  N    -0.970440  2.244893  0.716179
  N    -1.197600  6.668437  0.473503
  N    -1.913391  2.833374  4.447215
  N    -1.801561  6.541712  4.312482
  S    -2.591575  2.315382  2.993494
  S    -2.595510  6.094755  2.860811
  S     0.409115  3.051726  0.311505
  S     0.343660  7.198627  0.230634
  S    -0.405957  3.472200  4.300380
  S    -0.159715  6.923596  4.208904
