16  
    
  C    -1.530916  2.615225  2.353870
  C    -1.476189  6.474407  2.300403
  C    -2.711183  2.190777  1.586783
  C    -2.702757  5.899434  1.676338
  N    -0.427219  2.722108  1.638350
  N    -0.486201  6.593374  1.431392
  N    -2.390406  1.871598  0.344549
  N    -2.623895  5.674209  0.376072
  N    -3.453053  2.462208  4.028341
  N    -3.200481  6.239899  4.218993
  S    -4.044074  1.801766  2.624704
  S    -4.061484  5.808508  2.811961
  S    -0.801305  2.278715  0.076800
  S    -1.088675  6.156216 -0.067667
  S    -1.884151  3.042370  4.017074
  S    -1.607178  6.639650  4.055211
