16  
    
  C     0.334782  3.563948  2.938227
  C     0.405372  7.659856  2.806014
  C    -0.853036  3.162730  2.206362
  C    -0.935263  7.506145  2.282091
  N     1.353568  3.901500  2.163530
  N     1.349308  7.682040  1.877893
  N    -0.809374  3.465011  0.912992
  N    -1.016425  7.406497  0.955891
  N    -1.402494  3.125330  4.730831
  N    -1.203589  7.544610  4.798299
  S    -2.231594  2.850960  3.296695
  S    -2.170880  7.454245  3.471329
  S     0.841015  3.753387  0.582088
  S     0.554959  7.560705  0.457468
  S     0.184334  3.418492  4.604516
  S     0.439324  7.557842  4.542497
