16  
    
  C    -3.184312  1.771604  1.994375
  C    -3.175396  5.535686  2.121025
  C    -4.405727  1.382441  1.359260
  C    -4.250806  4.834125  1.477509
  N    -2.162884  2.082587  1.183503
  N    -2.220795  5.840409  1.277293
  N    -4.313689  1.325641  0.033120
  N    -4.181793  4.706653  0.133926
  N    -5.031494  1.582430  3.832821
  N    -4.817572  5.053289  3.940594
  S    -5.752540  1.235085  2.420953
  S    -5.578743  4.542403  2.566987
  S    -2.792177  1.774025 -0.345646
  S    -2.618814  5.347577 -0.193612
  S    -3.455193  1.895938  3.757157
  S    -3.328114  5.893675  3.833678
