16  
    
  C    -5.452138  1.168707  1.625140
  C    -5.166310  4.832468  1.385241
  C    -6.706052  0.992099  0.946075
  C    -6.429344  4.439919  0.798893
  N    -4.370673  1.119709  0.839431
  N    -4.101456  4.744906  0.559990
  N    -6.662012  0.755347 -0.398048
  N    -6.330095  4.097100 -0.508395
  N    -7.198439  1.065370  3.486314
  N    -6.927720  5.049470  3.308665
  S    -7.982019  0.781511  2.114790
  S    -7.774789  4.435739  2.002861
  S    -4.990822  0.758466 -0.702408
  S    -4.716960  4.178736 -0.877595
  S    -5.574687  1.252839  3.416479
  S    -5.273590  5.060156  3.109921
