16  
    
  C    -5.355246  1.155540  1.425694
  C    -5.287911  4.567343  1.559959
  C    -6.625740  0.886614  0.728044
  C    -6.624576  4.189134  1.076671
  N    -4.308723  1.263933  0.632936
  N    -4.374275  4.798160  0.624879
  N    -6.559469  0.556511 -0.570075
  N    -6.698207  3.983574 -0.229450
  N    -7.071290  1.036854  3.363253
  N    -6.957822  4.679348  3.624291
  S    -7.885025  0.663905  1.921815
  S    -7.852441  4.118643  2.336036
  S    -4.874918  0.755808 -0.893151
  S    -5.203583  4.344092 -0.783462
  S    -5.449884  1.362323  3.175806
  S    -5.307420  4.720784  3.310853
