16  
    
  C     3.175678  5.196098  3.457314
  C     3.692642  8.972557  3.372949
  C     1.918840  4.711235  2.810804
  C     2.444549  8.474994  2.909482
  N     4.149571  5.481933  2.590930
  N     4.610504  9.215413  2.417256
  N     2.082339  4.433806  1.509503
  N     2.377116  8.391836  1.563538
  N     1.257352  5.061775  5.232781
  N     2.032844  8.901549  5.385397
  S     0.642057  4.305739  3.853647
  S     1.158416  8.517858  3.973518
  S     3.521708  5.036953  1.060431
  S     3.838106  8.799849  0.987759
  S     2.897174  5.484256  5.170349
  S     3.599493  9.478073  5.108133
