16  
    
  C     3.481288  5.300325  3.568251
  C     3.551798  9.151228  3.499292
  C     2.218437  5.014018  2.942287
  C     2.449262  8.549065  2.849087
  N     4.457553  5.569428  2.651761
  N     4.569482  9.444983  2.643643
  N     2.246815  4.845006  1.631453
  N     2.547112  8.367835  1.522406
  N     1.722397  4.891304  5.494487
  N     1.817733  8.693788  5.415215
  S     0.952531  4.614112  4.018401
  S     1.173798  8.111946  3.983770
  S     3.818789  5.197316  1.183132
  S     4.036207  9.077939  1.111414
  S     3.270573  5.362868  5.320021
  S     3.362143  9.401534  5.209891
