16  
    
  C     0.961392  3.930838  2.651860
  C     1.419903  7.888390  3.192107
  C    -0.142034  3.481394  1.831750
  C     0.132298  7.649475  2.541148
  N     1.951603  4.366509  1.854557
  N     2.484168  7.921331  2.388854
  N     0.165025  3.200952  0.561784
  N     0.208469  7.531706  1.216177
  N    -0.980324  3.719923  4.245120
  N    -0.384380  7.953817  5.105316
  S    -1.565110  3.249480  2.782272
  S    -1.227714  7.709527  3.708314
  S     1.682724  3.808135  0.315803
  S     1.809272  7.747673  0.857333
  S     0.629615  4.281286  4.312718
  S     1.290535  8.087580  4.988584
