16  
    
  C    -3.864918  1.519537  1.687815
  C    -4.000955  5.380410  1.913441
  C    -5.120003  1.297675  1.108253
  C    -5.205836  5.186744  1.110472
  N    -2.796145  1.590488  0.871765
  N    -2.946883  5.822363  1.225290
  N    -5.025943  1.113433 -0.203894
  N    -5.029338  5.258447 -0.207708
  N    -5.634629  1.505634  3.637486
  N    -5.855069  4.948085  3.599252
  S    -6.514135  1.371822  2.273193
  S    -6.590046  4.739855  2.164395
  S    -3.478179  1.340456 -0.699000
  S    -3.411873  5.688657 -0.407806
  S    -4.007946  1.706832  3.476586
  S    -4.207401  5.071220  3.591891
