16  
    
  C     2.924385  5.248541  3.723305
  C     2.837365  8.742816  3.264787
  C     1.599196  5.212553  3.167330
  C     1.564524  8.347598  2.727095
  N     3.916275  5.085164  2.881921
  N     3.784013  8.669763  2.330471
  N     1.597281  4.787269  1.916358
  N     1.500771  8.000407  1.461096
  N     1.357376  5.448342  5.679226
  N     1.090457  8.923792  5.103433
  S     0.345743  5.422377  4.365508
  S     0.186460  8.417565  3.805500
  S     3.194889  4.615005  1.462497
  S     3.064718  8.149242  0.836083
  S     3.033270  5.534606  5.394966
  S     2.720778  9.117213  4.982305
