16  
    
  C    -0.357400  3.277636  2.545611
  C    -0.274393  6.991091  2.334736
  C    -1.673540  3.077633  1.999443
  C    -1.605511  6.573959  1.785796
  N     0.608413  3.544535  1.664242
  N     0.616366  7.125619  1.350436
  N    -1.659472  2.982252  0.656556
  N    -1.592966  6.401815  0.441111
  N    -1.985255  3.182356  4.539236
  N    -1.934977  6.675645  4.367281
  S    -2.933737  2.963290  3.223977
  S    -2.806556  6.291660  3.003352
  S    -0.054028  3.167137  0.194400
  S    -0.086501  6.783989 -0.108492
  S    -0.390451  3.495727  4.252591
  S    -0.348949  7.118776  4.099752
