16  
    
  C     3.600596  5.351749  3.562269
  C     3.466695  9.153484  3.571549
  C     2.364049  4.916835  2.908871
  C     2.294450  8.614375  2.893203
  N     4.635260  5.630943  2.778211
  N     4.477816  9.402216  2.758066
  N     2.482174  5.033615  1.567066
  N     2.513458  8.370331  1.627417
  N     1.766270  5.217686  5.468106
  N     1.618210  8.600116  5.343543
  S     1.049594  4.904019  4.070740
  S     0.977048  8.143718  3.846362
  S     4.070681  5.371136  1.195281
  S     3.902236  8.986052  1.252338
  S     3.386127  5.429066  5.319490
  S     3.165276  9.215166  5.349844
