16  
    
  C     2.937045  5.035287  3.600254
  C     3.076817  8.612912  3.571910
  C     1.661525  5.030957  2.925694
  C     1.848292  8.401093  2.860534
  N     3.989879  5.142713  2.791124
  N     4.176453  8.566407  2.747080
  N     1.779439  4.856793  1.597829
  N     1.944649  8.244472  1.530838
  N     1.128771  5.172367  5.502203
  N     0.958970  8.742946  5.231322
  S     0.308594  5.078511  4.105157
  S     0.405043  8.282317  3.724340
  S     3.414246  4.907516  1.250340
  S     3.511391  8.400710  1.221185
  S     2.769514  5.236176  5.374478
  S     2.637968  9.033106  5.272700
