16  
    
  C    -0.493681  3.205783  2.917644
  C    -1.131489  6.798241  2.761169
  C    -1.695205  2.829285  2.276369
  C    -2.215754  6.339946  1.853778
  N     0.581537  3.310517  2.129800
  N    -0.001797  6.977055  2.074689
  N    -1.574284  2.695150  0.954274
  N    -1.856101  6.062722  0.605572
  N    -2.344819  3.387746  4.708393
  N    -3.143785  6.226336  4.286228
  S    -3.075116  2.716122  3.367716
  S    -3.670369  5.910796  2.741736
  S     0.028410  2.927526  0.604843
  S    -0.274272  6.592299  0.458286
  S    -0.729179  3.762122  4.562041
  S    -1.604266  6.794435  4.452109
