16  
    
  C     2.030301  4.291783  3.088969
  C     1.989921  7.959368  3.139483
  C     0.772762  4.001105  2.497975
  C     0.814558  7.594302  2.398512
  N     3.018010  4.297569  2.216618
  N     3.087245  8.023544  2.402613
  N     0.734902  3.892191  1.198791
  N     1.023791  7.492841  1.104719
  N     0.295623  4.239594  4.948978
  N     0.176879  7.665207  4.896587
  S    -0.602680  3.969434  3.610726
  S    -0.586144  7.312633  3.478366
  S     2.331820  3.903517  0.701037
  S     2.605062  7.851951  0.846450
  S     1.820733  4.718985  4.742102
  S     1.764696  8.158086  4.806668
