16  
    
  C    -2.575873  2.121987  2.001103
  C    -2.465572  5.788028  2.112991
  C    -3.869410  1.770545  1.362173
  C    -3.664913  5.404848  1.418251
  N    -1.532234  2.169759  1.192578
  N    -1.316810  5.817846  1.394423
  N    -3.712428  1.637443  0.033890
  N    -3.459749  5.117854  0.127141
  N    -4.302615  2.212523  3.905871
  N    -4.470573  5.944784  3.789537
  S    -5.163727  2.065433  2.505007
  S    -5.145014  5.266168  2.399936
  S    -2.127096  1.811984 -0.347049
  S    -1.845165  5.355054 -0.184063
  S    -2.619036  2.357467  3.749561
  S    -2.809589  6.015612  3.806789
