16  
    
  C     3.108008  5.043461  3.403281
  C     3.270681  8.861072  3.576769
  C     1.942232  4.499887  2.671466
  C     2.024351  8.587722  2.934366
  N     4.131035  5.456602  2.655301
  N     4.300044  9.063495  2.773547
  N     2.245000  4.301640  1.392806
  N     2.154126  8.554618  1.642489
  N     1.164994  5.065993  5.130962
  N     1.517707  8.904926  5.476702
  S     0.629395  4.142378  3.855804
  S     0.707910  8.570812  4.063982
  S     3.700441  5.003636  1.079476
  S     3.695682  8.840300  1.270625
  S     2.788400  5.350732  5.073770
  S     3.157665  9.301342  5.283456
