16  
    
  C     3.086566  5.167912  3.428505
  C     3.421588  9.081184  3.509243
  C     2.006795  4.420074  2.736055
  C     2.127855  8.693452  2.991130
  N     4.044535  5.500721  2.565200
  N     4.385229  9.011573  2.593952
  N     2.137629  4.326725  1.439459
  N     2.058073  8.417681  1.733340
  N     1.146481  5.013495  5.085751
  N     1.610289  8.810089  5.469046
  S     0.602312  4.157565  3.761143
  S     0.764621  8.605158  4.065021
  S     3.670664  4.976163  1.089438
  S     3.584646  8.722514  1.097787
  S     2.777845  5.415199  5.138129
  S     3.210994  9.286957  5.303256
