16  
    
  C     3.135950  5.117481  3.377750
  C     3.007314  8.936953  3.844984
  C     1.899099  4.629829  2.712401
  C     1.758149  8.471196  3.321266
  N     4.214458  5.083265  2.580142
  N     3.972175  9.118615  2.940287
  N     2.024738  4.554580  1.381159
  N     1.729568  8.221865  1.995585
  N     1.162625  5.034669  5.043281
  N     1.383955  8.988325  5.849181
  S     0.463080  4.667531  3.587565
  S     0.457489  8.741224  4.486700
  S     3.630065  4.874744  1.035702
  S     3.336428  8.612053  1.498446
  S     2.817828  5.259963  5.115971
  S     3.027169  9.349523  5.561796
