16  
    
  C    -3.340809  1.653537  1.585177
  C    -3.749755  5.341610  1.644561
  C    -4.559118  1.152520  0.995718
  C    -5.028039  4.924020  1.060068
  N    -2.365068  1.887602  0.736666
  N    -2.799364  5.668664  0.744912
  N    -4.469809  0.856607 -0.299669
  N    -4.947315  4.836847 -0.255040
  N    -5.062651  1.460481  3.513115
  N    -5.566301  5.230247  3.537392
  S    -5.828519  0.944026  2.125508
  S    -6.349992  4.679208  2.218930
  S    -2.948167  1.397193 -0.759829
  S    -3.371952  5.249228 -0.743390
  S    -3.600436  2.161720  3.244398
  S    -3.935604  5.559522  3.327453
