16  
    
  C     3.608384  5.461483  3.591937
  C     3.430437  9.182085  3.651776
  C     2.419923  4.965235  2.912734
  C     2.309177  8.645422  2.904045
  N     4.669602  5.623020  2.779902
  N     4.448566  9.403996  2.779259
  N     2.496710  5.039230  1.594841
  N     2.410009  8.375635  1.607287
  N     1.769737  5.313863  5.440197
  N     1.565693  8.571763  5.314374
  S     1.061483  4.920019  4.034327
  S     0.958088  8.181770  3.845697
  S     4.056428  5.373556  1.178850
  S     3.923615  8.947892  1.207797
  S     3.404761  5.443758  5.335766
  S     3.123861  9.181278  5.408071
