16  
    
  C     1.972026  4.511438  3.347710
  C     1.495755  8.005021  3.018077
  C     0.791855  4.076472  2.698316
  C     0.411143  7.337286  2.308372
  N     2.924060  4.710894  2.447790
  N     2.498259  8.398807  2.228803
  N     0.816977  3.762943  1.435705
  N     0.582167  7.123697  0.993319
  N     0.184862  4.480585  5.159441
  N    -0.296311  7.631472  4.851371
  S    -0.528607  3.960175  3.793983
  S    -0.938617  6.968506  3.445180
  S     2.417309  4.185613  0.928123
  S     2.057687  7.963714  0.720950
  S     1.787470  4.902899  4.999685
  S     1.223834  8.253594  4.735010
