16  
    
  C    -2.577928  2.029678  2.021751
  C    -2.522518  5.828174  2.111954
  C    -3.861137  1.887787  1.355986
  C    -3.706831  5.337116  1.399641
  N    -1.521321  2.179957  1.215310
  N    -1.482932  5.823926  1.331126
  N    -3.760644  1.713951  0.054485
  N    -3.575420  5.099104  0.116742
  N    -4.435462  2.023460  3.803671
  N    -4.468585  5.863124  3.787047
  S    -5.225341  1.936516  2.386422
  S    -5.104930  5.292686  2.381986
  S    -2.219977  2.074310 -0.329258
  S    -1.900412  5.358132 -0.160838
  S    -2.840619  2.437213  3.714174
  S    -2.843761  6.133312  3.843043
