16  
    
  C    -0.355217  3.355427  2.636352
  C    -0.327527  7.051289  2.419966
  C    -1.446694  2.640036  2.081652
  C    -1.445056  6.734884  1.686433
  N     0.722793  3.366139  1.821115
  N     0.755321  7.203134  1.684726
  N    -1.402273  2.503041  0.743518
  N    -1.261487  6.538336  0.386719
  N    -2.186966  3.174893  4.462359
  N    -2.096218  6.804159  4.127258
  S    -2.807124  2.410421  3.143229
  S    -2.891505  6.563813  2.679084
  S     0.190958  2.805433  0.349175
  S     0.383030  6.765837  0.198003
  S    -0.614962  3.733622  4.276635
  S    -0.488708  7.279007  4.103494
