16  
    
  C     0.082913  3.406972  2.444528
  C     0.012341  7.194060  2.763487
  C    -1.037992  2.863115  1.757383
  C    -1.208436  6.770883  2.067838
  N     1.144311  3.533688  1.627062
  N     1.025910  7.439832  1.945364
  N    -0.979255  2.943651  0.422050
  N    -1.020818  6.742567  0.764466
  N    -1.681988  2.896603  4.246391
  N    -1.794873  6.869718  4.645504
  S    -2.342572  2.449298  2.789539
  S    -2.499495  6.476555  3.212575
  S     0.613628  3.352695  0.051519
  S     0.597615  7.072613  0.408329
  S    -0.079059  3.492205  4.182070
  S    -0.193239  7.344844  4.474192
