16  
    
  C    -0.316749  3.232349  2.621741
  C    -0.213047  7.088730  2.415028
  C    -1.542920  2.597989  2.045815
  C    -1.348972  6.274256  1.811123
  N     0.664586  3.405040  1.743758
  N     0.765341  7.323164  1.553522
  N    -1.500302  2.461180  0.720814
  N    -1.180170  5.922200  0.558437
  N    -1.948513  2.903553  4.633704
  N    -1.997026  6.715157  4.224710
  S    -2.783381  2.497584  3.248147
  S    -2.596586  5.901004  2.899790
  S     0.028217  2.941550  0.246041
  S     0.203675  6.653234  0.073541
  S    -0.285875  3.295001  4.365367
  S    -0.426499  7.333085  4.093374
