16  
    
  C    -3.314510  1.769808  2.036298
  C    -3.084745  5.449044  2.068557
  C    -4.612033  1.484143  1.441927
  C    -4.232543  4.887469  1.433596
  N    -2.427459  2.004170  1.085997
  N    -2.057572  5.689265  1.263806
  N    -4.614592  1.280149  0.114401
  N    -4.122508  4.719959  0.155114
  N    -4.915599  1.343665  4.088587
  N    -4.960847  5.200030  3.858717
  S    -5.820515  1.056277  2.697605
  S    -5.587623  4.577587  2.446700
  S    -3.123232  1.732238 -0.430219
  S    -2.500717  5.126307 -0.185635
  S    -3.303984  1.893366  3.830494
  S    -3.342512  5.791561  3.752663
