16  
    
  C    -1.740470  2.295130  1.892864
  C    -1.788362  6.362847  2.057763
  C    -3.005554  1.977943  1.285475
  C    -2.919934  5.798353  1.437602
  N    -0.691049  2.480914  1.108886
  N    -0.682211  6.504859  1.333793
  N    -2.908060  1.989965 -0.039044
  N    -2.730340  5.539585  0.087391
  N    -3.490662  2.338486  3.761113
  N    -3.594378  6.175947  3.965303
  S    -4.292516  1.849832  2.428460
  S    -4.202459  5.558662  2.565986
  S    -1.321956  2.214898 -0.440921
  S    -1.087832  5.903195 -0.138055
  S    -1.836105  2.395766  3.674785
  S    -2.122742  6.881697  3.782780
