16  
    
  C    -1.751965  2.247797  1.903013
  C    -1.856156  6.582204  2.043254
  C    -3.041789  2.127391  1.345613
  C    -2.908711  5.698657  1.538740
  N    -0.694038  2.363994  1.075057
  N    -0.729652  6.706834  1.307577
  N    -2.986637  1.982147  0.017314
  N    -2.595528  5.262405  0.325876
  N    -3.440348  2.291688  3.864286
  N    -3.472445  6.007985  3.999379
  S    -4.269184  1.808852  2.513949
  S    -4.301371  5.503669  2.633907
  S    -1.406463  2.263464 -0.440517
  S    -1.168738  5.913480 -0.098663
  S    -1.778941  2.528446  3.638886
  S    -2.146847  7.005951  3.730078
