16  
    
  C    -0.672434  3.186526  2.760530
  C    -1.358306  6.590597  2.602876
  C    -1.894703  2.634490  2.132805
  C    -2.417261  6.028457  1.824489
  N     0.333115  3.290408  1.910040
  N    -0.291798  6.833055  1.891668
  N    -1.746379  2.361958  0.849648
  N    -2.213658  5.928441  0.516201
  N    -2.434875  3.081371  4.587049
  N    -3.188989  6.083964  4.314624
  S    -3.304343  2.793791  3.229451
  S    -3.791666  5.612108  2.851409
  S    -0.153981  2.640984  0.482302
  S    -0.676620  6.608546  0.314259
  S    -0.817414  3.425190  4.444094
  S    -1.603852  6.654742  4.299155
