16  
    
  C    -2.963553  2.220680  1.820720
  C    -2.952372  5.833260  1.987575
  C    -4.015943  1.545267  1.116541
  C    -4.191999  5.411309  1.398884
  N    -1.954640  2.585269  1.034430
  N    -2.004881  6.141866  1.109964
  N    -3.897367  1.542500 -0.197857
  N    -4.129777  5.304820  0.102533
  N    -4.835047  1.696653  3.618843
  N    -4.568943  5.786546  4.018486
  S    -5.477336  1.368231  2.097055
  S    -5.362039  5.224822  2.644130
  S    -2.423148  2.313023 -0.527313
  S    -2.529574  5.673309 -0.370804
  S    -3.275745  2.320584  3.517277
  S    -2.948819  6.132462  3.745632
