16  
    
  C    -5.398766  1.167136  1.679115
  C    -5.162608  4.746375  1.431182
  C    -6.631981  0.933171  1.059277
  C    -6.420793  4.418977  0.795545
  N    -4.358395  1.090023  0.849583
  N    -4.145703  4.733870  0.578890
  N    -6.577022  0.762872 -0.271359
  N    -6.330398  4.064643 -0.481014
  N    -7.226792  1.008623  3.586826
  N    -6.967247  5.169392  3.135682
  S    -8.011145  0.703625  2.115973
  S    -7.744956  4.472799  1.821474
  S    -4.958812  0.738429 -0.648155
  S    -4.736095  4.299228 -0.914753
  S    -5.565986  1.272572  3.362432
  S    -5.282231  5.122974  3.125735
