16  
    
  C     1.122330  4.416670  3.004157
  C     1.722905  8.498430  2.934674
  C    -0.013360  3.924277  2.304725
  C     0.450650  8.132884  2.327214
  N     2.162953  4.701686  2.235368
  N     2.790122  8.400634  2.136940
  N     0.177034  3.894528  0.994762
  N     0.499797  7.940417  0.991852
  N    -0.752990  4.028063  4.804099
  N    -0.059890  8.368397  4.859482
  S    -1.389058  3.636378  3.312788
  S    -0.873252  8.034026  3.445653
  S     1.698985  4.370731  0.718330
  S     2.089271  8.083904  0.626014
  S     0.914999  4.385346  4.717061
  S     1.537157  8.781310  4.687943
