16  
    
  C     1.039375  4.212428  2.800212
  C     1.597664  8.689537  2.972874
  C    -0.118706  3.758082  2.033378
  C     0.389457  8.181080  2.367427
  N     2.096773  4.600490  2.082871
  N     2.573230  8.925211  2.106594
  N     0.125422  3.617458  0.739952
  N     0.537136  7.864766  1.073054
  N    -0.872028  3.861129  4.429180
  N    -0.110179  8.459672  4.891938
  S    -1.453212  3.301964  2.989605
  S    -0.906656  8.051251  3.502271
  S     1.698780  4.182436  0.490427
  S     2.109162  8.415361  0.632732
  S     0.654934  4.357739  4.471201
  S     1.456741  8.859837  4.696646
