16  
    
  C    -5.339619  0.964195  1.609964
  C    -5.179810  4.688264  1.482960
  C    -6.672906  0.799360  0.973368
  C    -6.448222  4.309832  0.927577
  N    -4.302797  1.121293  0.780614
  N    -4.174284  4.607574  0.608078
  N    -6.644721  0.653280 -0.373477
  N    -6.469640  3.963803 -0.374608
  N    -7.174307  1.064983  3.440250
  N    -6.791267  4.528407  3.439047
  S    -8.022197  0.954242  2.068830
  S    -7.725052  4.354018  2.074465
  S    -5.022330  0.910957 -0.756413
  S    -4.907597  4.173847 -0.818086
  S    -5.548168  1.340467  3.259687
  S    -5.197149  5.126547  3.203954
