16  
    
  C     2.957963  5.202007  3.976724
  C     2.621181  8.673560  3.121338
  C     1.675136  4.989421  3.346324
  C     1.341304  8.310026  2.617313
  N     3.963426  5.356793  3.116943
  N     3.594835  8.624494  2.223917
  N     1.782018  4.681111  2.054693
  N     1.323503  7.867371  1.372819
  N     1.241147  5.816875  5.673755
  N     0.859704  8.486004  5.135047
  S     0.383119  5.086327  4.465612
  S     0.066948  8.169811  3.681169
  S     3.402688  4.848366  1.674866
  S     2.862197  8.123395  0.770491
  S     2.856321  5.917511  5.502686
  S     2.474229  8.856959  4.892365
