16  
    
  C    -2.477088  2.522792  1.982818
  C    -2.394762  6.206629  2.116244
  C    -3.750862  2.091714  1.420584
  C    -3.575314  5.603063  1.452776
  N    -1.474590  2.525734  1.089523
  N    -1.372754  6.472936  1.329975
  N    -3.702477  1.863419  0.112559
  N    -3.309514  5.348298  0.210541
  N    -4.146709  2.453162  3.952949
  N    -4.238577  5.849552  3.905928
  S    -4.993958  1.983316  2.619826
  S    -4.989534  5.383103  2.477084
  S    -2.133152  2.186703 -0.356257
  S    -1.688792  5.694218 -0.144043
  S    -2.591022  2.937408  3.694664
  S    -2.689851  6.447099  3.829023
