16  
    
  C    -0.369190  3.345180  2.572373
  C    -0.315919  6.930557  2.361925
  C    -1.618975  3.041170  2.001235
  C    -1.576144  6.567612  1.808491
  N     0.597614  3.491632  1.689935
  N     0.578401  7.163626  1.380286
  N    -1.661937  3.033611  0.684348
  N    -1.642294  6.393483  0.490962
  N    -1.961594  3.198153  4.520356
  N    -1.947556  6.684959  4.353592
  S    -2.944090  2.948103  3.229124
  S    -2.808902  6.264541  2.965982
  S    -0.050555  3.181418  0.207921
  S    -0.098700  6.760387 -0.063831
  S    -0.403890  3.528557  4.273974
  S    -0.361788  7.126390  4.113632
