16  
    
  C    -0.276591  3.120087  2.598206
  C    -0.175961  7.008610  2.369134
  C    -1.503038  2.691114  2.073503
  C    -1.300597  6.301381  1.756345
  N     0.691339  3.293530  1.727581
  N     0.709743  7.376948  1.460660
  N    -1.439143  2.430586  0.774205
  N    -1.124076  6.074520  0.462772
  N    -1.852429  2.915134  4.590880
  N    -1.965582  6.625622  4.261959
  S    -2.777177  2.424529  3.296069
  S    -2.604402  5.938700  2.873695
  S     0.053200  3.001415  0.260765
  S     0.341846  6.726886  0.010335
  S    -0.327918  3.317305  4.281094
  S    -0.452043  7.232536  4.115966
