16  
    
  C     0.186467  3.340473  2.407065
  C     0.046689  7.232044  2.802300
  C    -1.018713  2.890937  1.689540
  C    -1.127656  6.885344  2.115511
  N     1.167504  3.652449  1.605510
  N     1.134739  7.397352  2.036438
  N    -0.990704  2.991641  0.370159
  N    -1.007252  6.688599  0.791062
  N    -1.605920  2.850156  4.258561
  N    -1.777011  6.997203  4.647804
  S    -2.330585  2.562066  2.754031
  S    -2.458908  6.462882  3.234443
  S     0.587951  3.362995  0.016596
  S     0.609649  7.051146  0.414967
  S    -0.028761  3.476109  4.172341
  S    -0.207923  7.446189  4.527679
