16  
    
  C    -0.378074  3.204608  2.589577
  C    -0.248984  7.058841  2.334983
  C    -1.624143  2.871619  1.938332
  C    -1.413346  6.697065  1.687982
  N     0.673422  3.328424  1.774892
  N     0.836718  7.203258  1.567657
  N    -1.480514  2.490965  0.645672
  N    -1.320429  6.504669  0.355389
  N    -2.076320  3.237335  4.469566
  N    -2.102176  6.752730  4.246643
  S    -2.887844  2.588741  3.148148
  S    -2.839222  6.587141  2.777619
  S     0.087199  2.942130  0.247540
  S     0.247347  6.828687 -0.025557
  S    -0.492367  3.652400  4.279053
  S    -0.492314  7.192756  4.096543
