16  
    
  C    -5.505526  1.048202  1.319891
  C    -5.327444  5.233790  1.437889
  C    -6.617646  0.508781  0.575137
  C    -6.390886  4.499100  0.818876
  N    -4.532418  1.442259  0.526615
  N    -4.320189  5.503189  0.639221
  N    -6.453592  0.487910 -0.725649
  N    -6.186443  4.290737 -0.443521
  N    -7.269417  0.636247  3.079266
  N    -6.969148  4.317330  3.246907
  S    -7.943005  0.058845  1.626507
  S    -7.629895  3.866475  1.792260
  S    -4.931195  1.074398 -1.053799
  S    -4.684774  4.825205 -0.847070
  S    -5.695239  1.124573  3.083634
  S    -5.557966  5.204653  3.144346
