16  
    
  C     0.954016  3.926376  2.850269
  C     1.088358  7.638211  3.107341
  C    -0.377917  3.538443  2.295081
  C    -0.128482  7.114369  2.499846
  N     1.956807  3.905226  1.940553
  N     2.106545  7.642331  2.253756
  N    -0.317472  2.985004  1.075157
  N     0.002909  6.842180  1.200371
  N    -0.651382  4.106027  4.840417
  N    -0.624835  7.427182  4.967899
  S    -1.564083  3.348889  3.595919
  S    -1.470311  7.066887  3.567398
  S     1.217042  3.295447  0.503751
  S     1.580753  7.083559  0.754745
  S     0.924813  4.406094  4.486640
  S     0.966301  8.008383  4.757417
