16  
    
  C     2.895898  5.324358  3.611175
  C     2.923086  8.785563  3.470463
  C     1.725216  4.930085  2.885972
  C     1.771533  8.328313  2.686606
  N     3.996637  5.368017  2.859414
  N     3.990711  9.020024  2.766200
  N     1.882607  4.846761  1.554927
  N     1.997276  8.124695  1.407965
  N     1.159207  4.695854  5.367901
  N     1.008538  8.677011  5.233148
  S     0.323695  4.833652  3.948254
  S     0.382973  8.081454  3.743195
  S     3.516825  5.172129  1.284495
  S     3.669256  8.524264  1.227098
  S     2.678189  5.317033  5.358259
  S     2.673745  8.806425  5.149014
