16  
    
  C    -3.740481  1.952485  1.964330
  C    -3.501044  5.403628  1.957259
  C    -4.662906  1.050133  1.291673
  C    -4.806002  4.930915  1.430320
  N    -2.733883  2.412071  1.219788
  N    -2.509418  5.408338  1.081043
  N    -4.376931  0.758442  0.014444
  N    -4.679449  4.430502  0.184513
  N    -5.627708  1.409527  3.726372
  N    -5.139812  5.273114  3.933029
  S    -6.000460  0.584294  2.383787
  S    -6.074968  4.911501  2.617701
  S    -2.986779  1.646462 -0.325207
  S    -3.163719  4.822203 -0.314512
  S    -4.248657  2.269900  3.558655
  S    -3.529257  5.790064  3.652039
