16  
    
  C     3.201773  4.996491  3.451445
  C     3.337765  9.181734  3.729638
  C     1.995048  4.552044  2.792960
  C     2.164465  8.848775  2.948524
  N     4.276365  5.115895  2.682518
  N     4.521695  9.195971  3.079567
  N     2.085497  4.568720  1.478405
  N     2.500380  8.639356  1.675924
  N     1.360248  5.158645  5.218991
  N     1.423267  9.002217  5.471640
  S     0.600243  4.648882  3.812592
  S     0.692502  8.797672  4.021407
  S     3.720708  4.788924  1.098125
  S     4.115746  8.999169  1.498764
  S     3.021340  5.228367  5.188481
  S     3.111649  9.239213  5.429822
