16  
    
  C     0.453085  3.821350  2.991409
  C     0.440554  7.518565  2.942593
  C    -0.888811  3.582479  2.348556
  C    -0.829462  7.277192  2.278206
  N     1.432393  3.825346  2.104081
  N     1.452404  7.588483  2.074977
  N    -0.849789  3.677451  1.006146
  N    -0.735595  7.108719  0.949496
  N    -1.099241  3.147145  4.906284
  N    -1.271444  7.537901  4.853084
  S    -2.077976  3.272356  3.557326
  S    -2.116378  7.109340  3.448445
  S     0.740561  3.945640  0.625874
  S     0.923243  7.226632  0.510239
  S     0.493328  3.312079  4.666194
  S     0.325959  7.846908  4.612055
