16  
    
  C    -2.389054  1.956185  1.999895
  C    -2.643590  5.719703  2.082947
  C    -3.682809  1.797475  1.463087
  C    -3.866158  5.342551  1.396616
  N    -1.331230  1.855745  1.210835
  N    -1.590629  5.770654  1.259025
  N    -3.649820  1.677564  0.145049
  N    -3.759830  5.181951  0.083549
  N    -4.082190  2.286519  4.016714
  N    -4.357639  5.479953  3.912627
  S    -4.981288  2.099683  2.642158
  S    -5.093812  5.042881  2.494060
  S    -2.045612  1.789104 -0.319869
  S    -2.102315  5.469241 -0.207793
  S    -2.440089  2.363011  3.717811
  S    -2.705752  5.795546  3.795718
