16  
    
  C     2.910873  5.345091  3.522304
  C     2.871353  8.699262  3.440967
  C     1.796284  4.775240  2.824483
  C     1.813510  8.092866  2.675121
  N     3.957817  5.480473  2.730675
  N     3.854184  9.144271  2.657138
  N     1.879680  4.720384  1.504858
  N     1.963802  8.170298  1.320436
  N     1.032105  5.094936  5.221244
  N     1.093100  8.334037  5.181055
  S     0.433892  4.440011  3.822976
  S     0.440925  7.875017  3.757684
  S     3.353489  5.264597  1.167134
  S     3.464036  8.809911  1.076354
  S     2.734885  5.344244  5.258006
  S     2.660578  8.962758  5.087807
