16  
    
  C    -6.045788  0.734883  1.376798
  C    -6.108681  4.286398  1.811012
  C    -7.219232  0.174239  0.843319
  C    -7.257849  3.855887  1.045336
  N    -5.228264  1.265364  0.457485
  N    -5.084130  4.658532  1.058290
  N    -7.226931  0.139470 -0.479316
  N    -7.036679  3.873773 -0.268616
  N    -7.697693  0.260605  3.395531
  N    -7.811710  3.660080  3.581187
  S    -8.435059 -0.274826  2.008902
  S    -8.646645  3.529988  2.105399
  S    -5.868269  0.965084 -1.041555
  S    -5.485405  4.486609 -0.533842
  S    -6.141601  0.888217  3.088826
  S    -6.353087  4.510757  3.543732
