16  
    
  C    -3.171001  1.954471  1.896219
  C    -3.221730  5.689722  2.097659
  C    -4.330072  1.498256  1.130230
  C    -4.427255  5.198391  1.457935
  N    -2.038121  2.036117  1.210268
  N    -2.250733  6.076484  1.271561
  N    -4.098838  1.353871 -0.188504
  N    -4.300369  5.068605  0.134895
  N    -5.187524  1.771460  3.605627
  N    -4.825958  5.299715  4.008808
  S    -5.719327  1.154501  2.141212
  S    -5.634766  4.866553  2.605807
  S    -2.474880  1.562030 -0.365847
  S    -2.796784  5.640787 -0.224053
  S    -3.541583  2.017210  3.560796
  S    -3.183314  5.815245  3.837388
