16  
    
  C     0.937835  4.216170  2.747683
  C     1.595643  8.716330  3.000088
  C    -0.077810  3.530468  1.970092
  C     0.389524  8.212068  2.358834
  N     2.000382  4.449721  1.960288
  N     2.638338  8.908525  2.171661
  N     0.103088  3.665863  0.641448
  N     0.470151  7.943488  1.054509
  N    -0.952145  3.855694  4.394959
  N    -0.148043  8.400363  4.918449
  S    -1.469543  3.222736  2.969070
  S    -0.940689  8.016184  3.478117
  S     1.668995  4.121060  0.427298
  S     2.009257  8.427795  0.692639
  S     0.656547  4.391515  4.450807
  S     1.480614  8.847239  4.766952
