16  
    
  C    -3.325671  1.716722  2.010241
  C    -3.110611  5.489498  2.050175
  C    -4.588953  1.257945  1.508172
  C    -4.265004  4.972287  1.368217
  N    -2.362833  1.852157  1.105380
  N    -1.998686  5.584277  1.338316
  N    -4.676551  1.283617  0.185262
  N    -4.053904  4.702828  0.104418
  N    -4.935273  1.453200  4.029987
  N    -4.874670  5.139957  3.914327
  S    -5.829081  1.102475  2.715799
  S    -5.655790  4.720942  2.505672
  S    -3.136027  1.634295 -0.375394
  S    -2.538646  5.163350 -0.238289
  S    -3.362064  1.826230  3.782760
  S    -3.396538  5.742615  3.709543
