16  
    
  C    -3.422361  1.735511  1.775014
  C    -3.668081  5.673653  1.737435
  C    -4.562984  1.062634  1.117116
  C    -4.855702  5.248301  1.043644
  N    -2.465805  1.986378  0.896611
  N    -2.644418  5.930593  0.955717
  N    -4.364362  0.705779 -0.172800
  N    -4.707625  5.235820 -0.285960
  N    -5.279741  1.518149  3.649276
  N    -5.428929  5.067910  3.596833
  S    -5.887446  0.772595  2.255509
  S    -6.146685  4.949273  2.101506
  S    -2.868534  1.348973 -0.612454
  S    -3.091482  5.653338 -0.579267
  S    -3.686656  2.122113  3.475754
  S    -3.855901  5.681252  3.485909
