16  
    
  C    -1.806953  2.289751  1.985379
  C    -1.860370  6.109698  2.132031
  C    -3.012029  2.008318  1.267358
  C    -3.069871  5.688396  1.442630
  N    -0.711234  2.443083  1.217692
  N    -0.845123  6.305826  1.335261
  N    -2.802899  1.831551 -0.045883
  N    -2.896767  5.559982  0.092435
  N    -3.661534  1.972779  3.800628
  N    -3.595966  5.947864  4.026175
  S    -4.395844  1.913261  2.299483
  S    -4.338462  5.731496  2.585455
  S    -1.170879  2.100321 -0.309030
  S    -1.232594  5.888066 -0.257763
  S    -2.022935  2.402606  3.737796
  S    -2.002302  6.339964  3.801632
