16  
    
  C     1.917739  4.519561  3.370775
  C     1.700883  7.678420  3.075832
  C     0.818721  3.941179  2.688569
  C     0.448865  7.429836  2.370115
  N     2.910626  4.798933  2.568917
  N     2.711980  7.897307  2.244661
  N     0.839683  3.960362  1.351607
  N     0.497046  7.390080  1.038659
  N     0.319501  4.011440  5.280797
  N    -0.195700  7.517147  4.874738
  S    -0.512547  3.710630  3.792187
  S    -0.942468  7.374708  3.367060
  S     2.405803  4.629991  0.969611
  S     2.095271  7.790888  0.723694
  S     1.912578  4.416153  5.050995
  S     1.484106  7.656357  4.811009
