16  
    
  C    -3.743985  1.936390  1.935221
  C    -3.563556  5.440169  1.913258
  C    -4.724325  1.059413  1.311055
  C    -4.768796  4.897909  1.392577
  N    -2.806350  2.369693  1.115447
  N    -2.585212  5.460008  1.053698
  N    -4.350447  0.797425  0.072877
  N    -4.734279  4.530556  0.105462
  N    -5.543106  1.366640  3.761113
  N    -5.209230  5.316736  3.965435
  S    -6.005205  0.504491  2.346378
  S    -6.054828  4.932001  2.545699
  S    -2.994603  1.682491 -0.342834
  S    -3.187485  4.870870 -0.420832
  S    -4.235323  2.395053  3.556813
  S    -3.578099  5.814270  3.690576
