16  
    
  C    -0.487664  3.257133  2.894671
  C    -1.187052  6.731053  2.657510
  C    -1.752378  2.746469  2.271638
  C    -2.277025  6.226287  1.836937
  N     0.562735  3.244481  2.098269
  N    -0.060421  7.022707  2.000454
  N    -1.653243  2.676253  0.950480
  N    -1.947118  6.139134  0.544495
  N    -2.345224  3.295208  4.660815
  N    -3.220250  6.167583  4.340380
  S    -3.116997  2.728104  3.338950
  S    -3.700310  5.846123  2.781948
  S    -0.047997  2.822615  0.573293
  S    -0.357763  6.550303  0.420489
  S    -0.770953  3.718977  4.562794
  S    -1.684898  6.724280  4.451646
