16  
    
  C     2.988457  5.444847  3.933392
  C     2.391648  8.594591  3.226298
  C     1.740856  5.024129  3.344574
  C     1.201960  8.065300  2.575051
  N     3.993420  5.448379  3.066001
  N     3.404945  8.797251  2.427291
  N     1.874603  4.501857  2.134533
  N     1.405511  7.755861  1.293313
  N     1.127149  5.704755  5.733604
  N     0.751241  8.245245  5.152863
  S     0.397109  4.858479  4.474570
  S    -0.173919  8.078972  3.714968
  S     3.429189  4.795847  1.584575
  S     3.044310  8.154913  0.949826
  S     2.759760  5.864988  5.652038
  S     2.376922  8.801930  4.866886
