16  
    
  C    -3.727488  1.770881  1.775708
  C    -3.946911  5.462490  1.860415
  C    -5.004822  1.338783  1.203096
  C    -5.128511  5.086941  1.062468
  N    -2.682154  1.843730  0.951381
  N    -2.917294  5.743184  1.081756
  N    -4.966526  1.365570 -0.109383
  N    -4.911811  5.146812 -0.265709
  N    -5.490169  1.593016  3.714502
  N    -5.728663  4.585332  3.546034
  S    -6.330452  1.158085  2.341127
  S    -6.472990  4.630521  2.032384
  S    -3.359620  1.629811 -0.618998
  S    -3.338325  5.620331 -0.472335
  S    -3.856470  1.740599  3.564514
  S    -4.276984  5.354458  3.605406
