16  
    
  C    -5.860128  0.807509  1.559268
  C    -6.063167  4.384436  1.711551
  C    -7.021762  0.184306  0.929075
  C    -7.294426  4.088293  0.913618
  N    -4.959966  1.239389  0.703785
  N    -5.004278  4.659511  0.983142
  N    -6.992620  0.022331 -0.395975
  N    -7.102346  4.034021 -0.393767
  N    -7.536412  0.351800  3.479593
  N    -7.952139  4.069017  3.438040
  S    -8.357395 -0.155695  2.064245
  S    -8.702983  3.940419  1.954592
  S    -5.583805  0.823535 -0.823814
  S    -5.497141  4.469958 -0.583583
  S    -6.011740  1.095818  3.262391
  S    -6.368913  4.675717  3.399205
