16  
    
  C    -2.164203  2.428554  1.941751
  C    -2.179939  5.806047  2.246429
  C    -3.484844  2.075403  1.368511
  C    -3.386589  5.443692  1.580393
  N    -1.220757  2.610950  1.007112
  N    -1.130864  5.846706  1.411954
  N    -3.396704  1.740206  0.081447
  N    -3.335961  5.378722  0.264790
  N    -3.860500  2.360919  3.897836
  N    -3.981741  5.920482  4.032064
  S    -4.704010  1.972566  2.547491
  S    -4.696792  5.428782  2.634310
  S    -1.830135  2.048716 -0.390549
  S    -1.752358  5.756842 -0.163629
  S    -2.244169  2.627145  3.714050
  S    -2.367558  6.141760  3.916535
