16  
    
  C     0.567765  3.717849  2.938886
  C     0.587621  7.518786  2.837873
  C    -0.792989  3.492136  2.409916
  C    -0.567845  7.125032  2.035896
  N     1.541158  3.844634  2.042804
  N     1.758374  7.672401  2.191468
  N    -0.773004  3.441119  1.101761
  N    -0.239402  6.837578  0.761680
  N    -1.129215  3.637331  4.921354
  N    -1.396606  7.271942  4.536045
  S    -2.030948  3.288721  3.620484
  S    -2.040921  6.960044  3.015457
  S     0.799862  3.480438  0.559038
  S     1.325565  7.258190  0.650863
  S     0.512815  3.990025  4.657789
  S     0.268154  7.697820  4.552852
