16  
    
  C     2.073636  4.538234  2.930714
  C     2.064973  8.088994  3.186524
  C     0.917456  3.860300  2.395548
  C     0.912988  7.606200  2.521328
  N     3.180325  4.569999  2.180767
  N     3.160493  8.083188  2.433944
  N     1.095539  3.656098  1.085224
  N     1.109781  7.251415  1.253985
  N     0.270681  4.466750  4.852149
  N     0.033257  8.197916  4.813980
  S    -0.518437  3.951073  3.504684
  S    -0.535472  7.455011  3.403030
  S     2.626177  4.006474  0.738375
  S     2.647774  7.621365  0.865029
  S     1.906944  4.771702  4.685994
  S     1.698333  8.352375  4.893141
