16  
    
  C     2.082601  4.597595  2.957102
  C     2.261545  8.578738  3.120484
  C     0.811460  4.323882  2.327419
  C     1.055853  8.071641  2.459691
  N     3.142644  4.857931  2.156268
  N     3.305882  8.664541  2.326424
  N     0.939441  4.068298  1.002566
  N     1.209266  7.772167  1.194914
  N     0.306617  4.403359  4.913910
  N     0.424143  8.447395  4.930301
  S    -0.440688  3.884592  3.440213
  S    -0.228311  7.783339  3.558195
  S     2.485630  4.483456  0.668447
  S     2.811714  8.128572  0.780766
  S     1.906155  4.875283  4.622304
  S     2.040731  8.894631  4.801960
