16  
    
  C    -3.730915  1.936482  1.905374
  C    -3.569271  5.459645  1.876712
  C    -4.700516  1.138171  1.282678
  C    -4.855568  5.059018  1.306493
  N    -2.788621  2.342026  1.057631
  N    -2.534993  5.596418  1.032267
  N    -4.416182  0.741222  0.039569
  N    -4.753291  4.856226  0.015103
  N    -5.440727  1.351689  3.768074
  N    -5.285415  5.474460  3.808428
  S    -5.907079  0.549305  2.366060
  S    -6.148972  4.953413  2.422681
  S    -3.030825  1.561758 -0.342417
  S    -3.241280  5.246317 -0.488204
  S    -4.147101  2.344809  3.492546
  S    -3.641623  5.762182  3.533029
