16  
    
  C     2.938130  5.232079  3.657950
  C     2.881946  8.809860  3.264109
  C     1.598788  5.155902  3.095458
  C     1.625851  8.411918  2.710355
  N     3.916364  4.882042  2.826004
  N     3.835524  8.847872  2.322948
  N     1.587973  4.757860  1.805424
  N     1.607512  7.994811  1.467995
  N     1.339192  5.505339  5.682436
  N     1.031949  8.845899  5.237328
  S     0.391376  5.380673  4.350499
  S     0.293300  8.488546  3.768971
  S     3.175573  4.684598  1.351624
  S     3.134150  8.100978  1.013283
  S     2.960705  5.448747  5.416217
  S     2.738804  9.071290  5.045263
