16  
    
  C    -1.187740  3.036078  2.308651
  C    -0.925694  7.084998  2.350478
  C    -2.519372  2.895137  1.712370
  C    -2.170190  6.663984  1.777682
  N    -0.166817  2.941727  1.456383
  N     0.075743  7.146018  1.454738
  N    -2.437593  2.690604  0.399631
  N    -2.188357  6.402553  0.446907
  N    -2.875560  3.188737  4.201253
  N    -2.526405  6.580025  4.390481
  S    -3.801951  2.814021  2.889672
  S    -3.427897  6.548602  3.041463
  S    -0.840961  2.806682 -0.038872
  S    -0.639487  6.732062 -0.046986
  S    -1.261081  3.258736  4.000754
  S    -0.904183  6.941372  4.100243
