16  
    
  C    -3.434471  1.708090  1.787247
  C    -3.703508  5.665910  1.769942
  C    -4.549698  1.038953  1.178939
  C    -4.864393  5.336491  1.031672
  N    -2.508671  2.016767  0.855767
  N    -2.639487  5.912949  1.014683
  N    -4.329683  0.693501 -0.116275
  N    -4.709778  5.223974 -0.276460
  N    -5.303364  1.518129  3.646872
  N    -5.354111  5.091939  3.585469
  S    -5.916136  0.763534  2.288782
  S    -6.152488  4.946945  2.083489
  S    -2.873610  1.382326 -0.595115
  S    -3.116595  5.667789 -0.592105
  S    -3.729986  2.125585  3.489591
  S    -3.822505  5.698440  3.525953
