16  
    
  C    -4.713903  1.025510  1.433279
  C    -4.673700  4.672310  1.969556
  C    -5.962966  0.789715  0.747124
  C    -5.876516  4.257894  1.282964
  N    -3.601801  1.224991  0.641133
  N    -3.619879  4.827623  1.146945
  N    -5.809745  0.634219 -0.556787
  N    -5.739565  3.990671 -0.027649
  N    -6.591416  0.865660  3.243031
  N    -6.526198  4.529651  3.801649
  S    -7.338226  0.374205  1.873370
  S    -7.258275  4.071045  2.354869
  S    -4.193056  0.892334 -0.916475
  S    -4.206180  4.444438 -0.367437
  S    -4.933345  1.175244  3.183404
  S    -4.850047  4.946547  3.727278
