16  
    
  C    -5.494663  1.020790  1.317816
  C    -5.324382  5.214672  1.456382
  C    -6.604837  0.523930  0.580514
  C    -6.412471  4.495999  0.813780
  N    -4.552349  1.436185  0.513077
  N    -4.335619  5.482239  0.650753
  N    -6.431688  0.483166 -0.723499
  N    -6.191376  4.286305 -0.435803
  N    -7.279200  0.616333  3.096248
  N    -6.972907  4.296670  3.252307
  S    -7.934262  0.071273  1.625024
  S    -7.651360  3.886541  1.791920
  S    -4.930043  1.086758 -1.052272
  S    -4.686020  4.831268 -0.846690
  S    -5.697771  1.128605  3.068530
  S    -5.576180  5.204650  3.147385
