16  
    
  C    -4.271878  1.631221  1.965071
  C    -4.465563  5.218977  1.695420
  C    -5.426243  1.139702  1.275773
  C    -5.684726  4.821445  1.137869
  N    -3.201041  1.750869  1.163915
  N    -3.430154  5.297187  0.832346
  N    -5.198377  0.628724  0.026491
  N    -5.681736  4.525705 -0.158103
  N    -6.179315  1.567283  3.714984
  N    -6.195843  5.233787  3.638443
  S    -6.835213  0.996941  2.316313
  S    -6.993193  4.674390  2.329654
  S    -3.579264  1.058612 -0.265986
  S    -4.141094  4.859233 -0.639509
  S    -4.598289  2.041504  3.642042
  S    -4.620977  5.542367  3.426835
