16  
    
  C     0.481151  3.589766  2.938142
  C     0.568597  7.516423  2.882306
  C    -0.824160  3.662845  2.394363
  C    -0.569144  7.016811  2.166066
  N     1.449351  3.719393  2.041820
  N     1.658018  7.678292  2.122418
  N    -0.889154  3.495471  1.058028
  N    -0.409346  6.829564  0.856562
  N    -1.130606  3.538629  4.956442
  N    -1.425797  7.257018  4.618563
  S    -2.012929  3.297377  3.579544
  S    -2.073696  7.057448  3.096045
  S     0.736979  3.814038  0.540278
  S     1.224549  7.211257  0.585769
  S     0.542997  3.691872  4.685214
  S     0.194268  7.756883  4.618178
