16  
    
  C     2.589014  4.989175  3.593530
  C     2.224875  8.853259  3.410080
  C     1.406128  4.339954  3.070205
  C     1.237801  7.971045  2.799465
  N     3.539072  5.287348  2.716889
  N     3.278506  9.099077  2.631436
  N     1.464061  4.080557  1.754675
  N     1.565847  7.478757  1.611764
  N     0.974262  4.883826  5.549770
  N     0.497784  8.232785  5.219422
  S     0.175639  4.215971  4.307419
  S    -0.077973  7.597733  3.840391
  S     2.983762  4.611843  1.267006
  S     2.955940  8.298441  1.172059
  S     2.482832  5.363375  5.274514
  S     1.926479  9.109022  5.086058
