16  
    
  C     2.856710  5.226624  3.864033
  C     2.466955  8.493450  3.404821
  C     1.634157  4.702344  3.275116
  C     1.282488  7.949059  2.727348
  N     3.823384  5.425836  2.953327
  N     3.465361  8.754864  2.568366
  N     1.896204  4.115689  2.080639
  N     1.416936  7.876949  1.420644
  N     1.228792  5.147785  5.762028
  N     0.322752  8.512627  5.011625
  S     0.324718  4.740624  4.487084
  S    -0.103619  7.618070  3.638889
  S     3.359232  4.761506  1.555916
  S     2.964935  8.275358  1.066795
  S     2.780093  5.727549  5.524769
  S     1.990720  8.910409  5.130118
