16  
    
  C    -5.833389  0.853189  1.562740
  C    -6.029798  4.543408  1.647679
  C    -6.941586  0.197043  0.978410
  C    -7.265829  4.103309  0.901314
  N    -4.886792  1.158379  0.710298
  N    -5.015627  4.676027  0.841314
  N    -6.846030  0.119280 -0.336614
  N    -7.079148  4.102259 -0.383392
  N    -7.610390  0.565064  3.428274
  N    -7.859269  4.099956  3.360381
  S    -8.284785 -0.060204  2.066664
  S    -8.626330  4.000358  1.855107
  S    -5.410066  0.793964 -0.799201
  S    -5.501593  4.450229 -0.721557
  S    -6.063053  1.028250  3.267409
  S    -6.294869  4.729903  3.367584
