16  
    
  C    -3.332237  1.551295  2.049356
  C    -3.143211  5.422186  2.067989
  C    -4.629905  1.307754  1.522570
  C    -4.355890  4.977017  1.372921
  N    -2.378169  1.781784  1.155721
  N    -2.108318  5.539701  1.244805
  N    -4.643697  1.204887  0.206403
  N    -4.152156  4.718983  0.062960
  N    -5.001958  1.591478  4.025631
  N    -4.923098  5.072409  3.935465
  S    -5.850833  1.117523  2.667874
  S    -5.682355  4.829996  2.476916
  S    -3.129383  1.501839 -0.273856
  S    -2.516496  5.177738 -0.284536
  S    -3.364060  1.762371  3.723991
  S    -3.341895  5.776981  3.816042
