16  
    
  C     0.689984  3.527899  2.715788
  C     0.654741  7.699987  2.732662
  C    -0.695129  3.426322  2.171912
  C    -0.521185  6.993048  2.153348
  N     1.638397  3.913681  1.833498
  N     1.554224  8.013923  1.808116
  N    -0.647132  3.326677  0.838163
  N    -0.480177  6.842739  0.846310
  N    -0.932174  3.276996  4.727160
  N    -1.055010  7.337198  4.647837
  S    -1.966196  3.112888  3.361730
  S    -1.783389  6.626472  3.278870
  S     0.899124  3.692467  0.333521
  S     0.920463  7.430501  0.341103
  S     0.630532  3.501425  4.410688
  S     0.533113  7.879412  4.419544
