16  
    
  C    -5.392723  1.082124  1.570273
  C    -5.175508  4.512675  1.541566
  C    -6.642162  0.814697  0.902537
  C    -6.455087  4.195155  1.073497
  N    -4.407054  1.108348  0.668902
  N    -4.263132  4.615329  0.556659
  N    -6.543218  0.651618 -0.445937
  N    -6.512297  3.968336 -0.239043
  N    -7.159909  1.084799  3.478554
  N    -6.824952  4.624012  3.587650
  S    -7.960428  0.941805  1.991593
  S    -7.737519  4.227231  2.233055
  S    -4.994836  0.869810 -0.834722
  S    -4.983254  4.225301 -0.884178
  S    -5.475091  1.369937  3.286877
  S    -5.263685  4.980430  3.213933
