16  
    
  C    -4.400063  0.908287  1.753371
  C    -4.732713  4.547895  1.584150
  C    -5.662863  0.655952  1.092960
  C    -5.932148  4.213738  0.794611
  N    -3.422491  1.314742  0.941543
  N    -3.727868  5.002740  0.867995
  N    -5.596070  0.770624 -0.247734
  N    -5.805542  4.516793 -0.515728
  N    -6.173471  0.652647  3.587840
  N    -6.599098  4.275139  3.310110
  S    -7.097344  0.465234  2.205491
  S    -7.334525  3.878072  1.848273
  S    -4.098593  1.293659 -0.577000
  S    -4.230426  4.999723 -0.727848
  S    -4.619352  1.075665  3.475981
  S    -4.965880  4.454059  3.347831
