16  
    
  C     0.454428  3.826419  3.006831
  C     0.436982  7.531268  2.935279
  C    -0.878208  3.564225  2.359049
  C    -0.821024  7.276851  2.307434
  N     1.425638  3.804574  2.108713
  N     1.425158  7.574197  2.062309
  N    -0.870201  3.679386  1.011315
  N    -0.780231  7.123705  0.985359
  N    -1.128653  3.119065  4.891502
  N    -1.260407  7.554919  4.838465
  S    -2.085766  3.259852  3.558631
  S    -2.112291  7.120624  3.455786
  S     0.760271  3.953072  0.620825
  S     0.906345  7.248061  0.503674
  S     0.494756  3.312641  4.660614
  S     0.339284  7.845406  4.623174
