16  
    
  C     1.880909  4.678429  3.281134
  C     1.408517  8.072443  3.023177
  C     0.696238  4.001679  2.724287
  C     0.420728  7.273418  2.386331
  N     2.954253  4.647918  2.431361
  N     2.333031  8.559240  2.222033
  N     0.840507  3.675446  1.425770
  N     0.626736  7.139966  1.099981
  N     0.117729  4.540670  5.232311
  N    -0.310783  7.588641  4.816448
  S    -0.656083  4.120700  3.790849
  S    -0.913504  6.966682  3.418123
  S     2.308651  4.129334  1.010418
  S     1.992556  7.930007  0.699887
  S     1.769934  4.867629  5.048484
  S     1.227880  8.257872  4.724006
