16  
    
  C    -1.209319  3.296344  2.102187
  C    -1.124479  7.175997  2.623835
  C    -2.426663  2.776886  1.584546
  C    -2.356611  6.811831  1.995214
  N    -0.288773  3.671448  1.205147
  N    -0.083456  7.165725  1.781703
  N    -2.398568  2.551913  0.260925
  N    -2.220157  6.617003  0.664904
  N    -2.772594  2.914239  4.079292
  N    -2.801790  6.611286  4.514273
  S    -3.561485  2.294004  2.777233
  S    -3.656579  6.705125  3.104046
  S    -0.971913  3.262518 -0.267022
  S    -0.627094  6.960541  0.237727
  S    -1.279281  3.572135  3.848766
  S    -1.158848  6.952238  4.364839
