16  
    
  C     0.870122  3.986456  2.512615
  C     1.494210  8.403126  3.166336
  C    -0.316786  3.517856  1.834110
  C     0.217718  8.180996  2.536121
  N     1.820723  4.401566  1.666039
  N     2.521945  8.465815  2.333160
  N    -0.114293  3.177326  0.562523
  N     0.282096  8.151679  1.222982
  N    -0.920758  3.739888  4.345174
  N    -0.182488  8.163637  5.037726
  S    -1.560276  3.134936  2.966562
  S    -1.071183  7.985620  3.661731
  S     1.474587  3.699851  0.201867
  S     1.940279  8.398791  0.824530
  S     0.695761  4.306130  4.258932
  S     1.434983  8.534726  4.915851
