16  
    
  C    -5.371114  0.941964  1.781536
  C    -5.131565  4.645956  1.397393
  C    -6.588364  0.699863  1.061693
  C    -6.349256  4.302253  0.773995
  N    -4.370614  1.073979  0.920270
  N    -4.126046  4.800612  0.561593
  N    -6.444532  0.492890 -0.245846
  N    -6.225578  4.099009 -0.513594
  N    -7.153284  1.019934  3.606526
  N    -7.018300  5.042550  3.134790
  S    -7.920172  0.624770  2.169293
  S    -7.794563  4.482984  1.748622
  S    -4.889610  0.829980 -0.588289
  S    -4.636879  4.453476 -0.985994
  S    -5.522374  1.343440  3.458587
  S    -5.386663  5.231345  2.998133
