16  
    
  C     2.029094  4.499099  3.301755
  C     1.604752  7.673687  3.062558
  C     0.798862  4.133373  2.662391
  C     0.387552  7.413341  2.353144
  N     2.966863  4.976260  2.462474
  N     2.644567  7.939460  2.316741
  N     0.924255  3.906732  1.323443
  N     0.590845  7.450526  1.051258
  N     0.342426  4.014163  5.168485
  N    -0.205107  7.552762  4.819446
  S    -0.463842  3.685291  3.830081
  S    -0.992840  7.374229  3.386676
  S     2.378273  4.555333  0.942926
  S     2.161044  7.721816  0.724423
  S     1.900146  4.556941  5.056759
  S     1.411510  7.728975  4.767931
