16  
    
  C    -0.466621  3.200860  2.924104
  C    -1.111770  6.830865  2.759265
  C    -1.742345  2.902838  2.261080
  C    -2.202621  6.301959  1.904766
  N     0.576517  3.334763  2.124036
  N     0.024124  6.962043  2.108590
  N    -1.531897  2.644159  0.970296
  N    -1.838826  6.075045  0.665962
  N    -2.369370  3.410540  4.757736
  N    -3.084526  6.249454  4.235621
  S    -3.036372  2.720700  3.359921
  S    -3.660611  5.940405  2.720443
  S     0.060280  2.986718  0.623536
  S    -0.242335  6.609244  0.498616
  S    -0.702226  3.771805  4.564444
  S    -1.543594  6.832834  4.423357
