16  
    
  C    -0.321748  3.372724  2.738053
  C    -0.489372  6.927486  2.457973
  C    -1.631381  3.159266  2.102676
  C    -1.733239  6.425006  1.876052
  N     0.661898  3.442358  1.838847
  N     0.514957  7.109902  1.604295
  N    -1.583277  2.995992  0.764927
  N    -1.575503  6.209736  0.564245
  N    -2.074188  3.243682  4.636917
  N    -2.225396  6.733881  4.411176
  S    -2.868160  2.890391  3.226544
  S    -3.007962  6.140212  3.038292
  S     0.005554  3.255400  0.325971
  S    -0.032898  6.768272  0.093162
  S    -0.513278  3.720676  4.448117
  S    -0.643993  7.099073  4.187845
