16  
    
  C    -2.445587  2.237976  1.977662
  C    -2.574032  5.672546  2.109661
  C    -3.767220  1.965260  1.451964
  C    -3.716095  5.354675  1.335926
  N    -1.430284  2.027874  1.119236
  N    -1.427518  5.776745  1.422811
  N    -3.729405  1.594220  0.177633
  N    -3.476802  5.094765  0.054203
  N    -4.188868  2.230019  3.962078
  N    -4.378971  5.670313  3.853727
  S    -5.058571  2.090885  2.529390
  S    -5.084745  5.319085  2.367822
  S    -2.141885  1.607483 -0.304425
  S    -1.893753  5.393838 -0.171824
  S    -2.520499  2.316115  3.708591
  S    -2.754238  6.006601  3.800154
