16  
    
  C     2.157579  4.486946  2.960518
  C     2.133383  8.584905  3.079204
  C     0.986958  3.909076  2.350247
  C     1.038499  7.812949  2.577722
  N     3.212878  4.557395  2.168691
  N     3.118509  8.677398  2.161861
  N     1.096235  3.798627  1.049889
  N     1.206515  7.238476  1.389365
  N     0.370507  4.261992  4.794973
  N     0.302432  8.481028  4.963717
  S    -0.392247  3.873997  3.384259
  S    -0.384591  7.863598  3.549118
  S     2.686032  4.189957  0.653167
  S     2.601192  7.825551  0.836722
  S     1.987017  4.576268  4.621744
  S     1.870362  9.076782  4.767327
