16  
    
  C    -0.721474  3.001674  2.623041
  C    -1.343437  6.628356  2.521393
  C    -1.976070  2.607200  1.989944
  C    -2.419194  5.957149  1.887583
  N     0.320385  3.074680  1.770215
  N    -0.293237  6.846096  1.772356
  N    -1.797405  2.303107  0.729584
  N    -2.239686  5.745176  0.623191
  N    -2.560265  2.975410  4.449959
  N    -2.992225  5.960951  4.290833
  S    -3.329655  2.552987  3.025997
  S    -3.770142  5.581548  2.815340
  S    -0.266712  2.684694  0.293168
  S    -0.759615  6.431232  0.247812
  S    -0.923294  3.282807  4.353096
  S    -1.436295  6.566728  4.229839
