16  
    
  C     0.217877  3.428717  2.372777
  C     0.121535  7.326280  2.881681
  C    -1.033473  3.032674  1.711809
  C    -1.022920  6.817851  2.217230
  N     1.165418  3.667279  1.502868
  N     1.175428  7.356963  2.043280
  N    -0.939251  2.931704  0.411683
  N    -0.945691  6.653728  0.896963
  N    -1.506656  2.827602  4.178301
  N    -1.767740  7.136331  4.591150
  S    -2.366181  2.738604  2.800882
  S    -2.382091  6.471740  3.180567
  S     0.591524  3.463606 -0.016062
  S     0.614775  7.026714  0.564028
  S     0.043772  3.419722  4.051214
  S    -0.120262  7.630459  4.575751
