16  
    
  C     0.843463  3.885389  2.503287
  C     1.533120  8.128007  3.241931
  C    -0.307453  3.366134  1.881961
  C     0.248364  8.007771  2.595824
  N     1.810557  4.137324  1.657180
  N     2.595348  8.282277  2.430545
  N    -0.224880  3.226824  0.535151
  N     0.320495  7.868674  1.263693
  N    -0.774552  3.682382  4.385022
  N    -0.211446  8.061750  5.181823
  S    -1.612239  3.172431  3.007090
  S    -1.092360  7.965889  3.775457
  S     1.320425  3.646440  0.160323
  S     1.897719  8.153309  0.892738
  S     0.753280  4.192647  4.246761
  S     1.463930  8.131211  5.063125
