16  
    
  C    -0.727041  3.029624  2.666425
  C    -1.305453  6.503016  2.543843
  C    -1.963668  2.666748  2.070507
  C    -2.400348  5.945125  1.859628
  N     0.297915  3.299460  1.867720
  N    -0.311720  6.950881  1.774125
  N    -1.764509  2.279457  0.811071
  N    -2.256370  5.938599  0.526785
  N    -2.530813  3.065641  4.628210
  N    -3.165753  6.069713  4.341043
  S    -3.317072  2.738891  3.149401
  S    -3.765185  5.578622  2.905246
  S    -0.184465  2.630790  0.421468
  S    -0.711953  6.517780  0.188787
  S    -0.839622  3.340822  4.384486
  S    -1.632955  6.592237  4.335041
