16  
    
  C    -5.242491  1.017443  1.785141
  C    -5.201391  4.874765  1.294690
  C    -6.446257  0.462598  1.145860
  C    -6.372336  4.371879  0.628689
  N    -4.189618  1.206445  0.979012
  N    -4.077186  4.893119  0.595368
  N    -6.377543  0.358674 -0.171926
  N    -6.164820  4.134028 -0.665496
  N    -7.093803  1.052758  3.608514
  N    -6.970878  4.808896  3.144863
  S    -7.890618  0.552388  2.243477
  S    -7.754987  4.359740  1.732548
  S    -4.802795  0.815483 -0.559983
  S    -4.548490  4.459179 -0.921127
  S    -5.502652  1.330434  3.463659
  S    -5.393230  5.282172  3.002544
