16  
    
  C    -0.107946  3.747326  2.425748
  C     0.340896  7.455112  2.717894
  C    -1.175545  2.944406  1.975215
  C    -0.881018  7.054296  2.011398
  N     0.992857  3.809657  1.663852
  N     1.394259  7.652596  1.921091
  N    -0.989374  2.613047  0.668816
  N    -0.713013  6.794991  0.698786
  N    -1.777713  3.474120  4.391129
  N    -1.475818  7.259973  4.610535
  S    -2.540151  2.815184  3.083137
  S    -2.201493  6.837584  3.189095
  S     0.496643  3.196984  0.217508
  S     0.831970  7.228259  0.374968
  S    -0.200529  4.053376  4.131189
  S     0.175818  7.652684  4.473525
