16  
    
  C     2.976532  5.450319  3.888235
  C     2.373530  8.593150  3.237887
  C     1.780036  4.804876  3.378127
  C     1.187815  8.056025  2.597503
  N     3.941031  5.568025  2.994302
  N     3.504366  8.709519  2.493406
  N     1.843011  4.439151  2.109827
  N     1.468739  7.702156  1.330955
  N     1.147071  5.502387  5.742476
  N     0.633641  8.358848  5.092407
  S     0.419853  4.820376  4.428396
  S    -0.153516  7.930725  3.708957
  S     3.376993  4.747049  1.681048
  S     2.993452  8.237496  1.010681
  S     2.779662  5.781450  5.603098
  S     2.183368  8.800709  4.966611
