16  
    
  C    -1.167641  3.301565  2.177633
  C    -1.102148  7.071400  2.632407
  C    -2.459790  2.814333  1.606717
  C    -2.369402  6.784561  2.014612
  N    -0.385210  3.736370  1.210033
  N    -0.090723  7.084310  1.756637
  N    -2.438142  2.541616  0.291376
  N    -2.313778  6.815296  0.676780
  N    -2.685913  2.923418  4.183742
  N    -2.814733  6.680687  4.523810
  S    -3.631970  2.512193  2.893444
  S    -3.692521  6.582674  3.062634
  S    -0.933048  3.082919 -0.233208
  S    -0.691679  6.882821  0.216480
  S    -1.112601  3.356612  3.892794
  S    -1.185283  7.092861  4.348285
