16  
    
  C     0.950769  3.822066  2.539426
  C     1.592504  7.993585  3.271536
  C    -0.344280  3.568181  1.897242
  C     0.239961  7.882555  2.652869
  N     1.949585  3.991801  1.666939
  N     2.640003  8.091465  2.431785
  N    -0.154336  3.296613  0.632119
  N     0.285215  7.856928  1.312154
  N    -0.805337  3.554648  4.423691
  N    -0.162758  7.865145  5.171813
  S    -1.636565  3.181160  2.999106
  S    -1.066214  7.886857  3.785872
  S     1.342631  3.717301  0.185761
  S     1.888844  7.971520  0.958797
  S     0.684172  4.094528  4.198184
  S     1.454588  8.048045  5.034574
