16  
    
  C     2.974460  4.975557  3.215349
  C     3.013683  9.256824  3.761706
  C     1.739680  4.506708  2.650841
  C     1.900532  8.580149  3.106273
  N     3.904974  5.333407  2.315403
  N     4.007242  9.495826  2.898901
  N     1.811738  4.288352  1.352890
  N     1.984497  8.315471  1.785333
  N     1.191991  5.028017  5.096083
  N     1.103433  8.644011  5.435401
  S     0.450377  4.222951  3.777454
  S     0.477916  8.189030  3.973689
  S     3.348066  4.819889  0.868320
  S     3.437821  8.994352  1.337171
  S     2.814630  5.459054  4.861414
  S     2.592830  9.422643  5.486989
