16  
    
  C     2.136296  4.854473  3.176536
  C     2.012956  8.929097  3.388210
  C     0.904621  4.514484  2.489771
  C     0.819848  8.479926  2.714988
  N     3.055555  5.259418  2.335531
  N     3.055189  9.081937  2.576627
  N     0.976846  4.428376  1.165833
  N     0.981023  8.173541  1.405018
  N     0.406991  4.370761  4.984573
  N     0.241764  8.580322  5.277944
  S    -0.396478  4.092993  3.552367
  S    -0.536387  8.217480  3.797577
  S     2.547421  4.900661  0.803606
  S     2.533430  8.617153  1.078573
  S     2.074676  4.698781  4.924724
  S     1.858953  8.936373  5.136575
