16  
    
  C    -4.457306  1.643825  1.943797
  C    -4.663715  5.040215  1.695078
  C    -5.630787  0.975778  1.350489
  C    -5.811718  4.430975  1.052703
  N    -3.451811  1.748054  1.108661
  N    -3.620178  5.295346  0.937490
  N    -5.503560  0.839842  0.014388
  N    -5.677387  4.335363 -0.249349
  N    -5.989007  1.073869  3.926009
  N    -6.393552  4.711726  3.526867
  S    -6.806374  0.631238  2.514887
  S    -7.092851  4.012102  2.147758
  S    -4.006176  1.260605 -0.373172
  S    -4.130297  4.903300 -0.595158
  S    -4.384153  1.772233  3.697041
  S    -4.802855  5.201983  3.376524
