16  
    
  C    -0.480892  3.195421  2.915451
  C    -1.118486  6.816892  2.771456
  C    -1.720497  2.864470  2.271841
  C    -2.214841  6.325685  1.869802
  N     0.578507  3.321536  2.126252
  N     0.006202  6.967155  2.089302
  N    -1.553737  2.674480  0.963134
  N    -1.849142  6.064663  0.634610
  N    -2.358340  3.398887  4.731848
  N    -3.119841  6.235818  4.262307
  S    -3.058089  2.716915  3.364358
  S    -3.666085  5.923558  2.732466
  S     0.043210  2.953080  0.613622
  S    -0.258909  6.600800  0.473169
  S    -0.717000  3.767742  4.562674
  S    -1.578485  6.810825  4.440136
