16  
    
  C    -4.391017  1.579445  1.962819
  C    -4.629789  5.059063  1.725003
  C    -5.584195  1.091157  1.359087
  C    -5.810002  4.467561  1.079346
  N    -3.390073  1.791749  1.109038
  N    -3.668583  5.323611  0.831083
  N    -5.488712  0.792252  0.067495
  N    -5.693258  4.355510 -0.250350
  N    -6.018669  1.166784  3.925549
  N    -6.351190  4.665756  3.568993
  S    -6.837328  0.676367  2.548943
  S    -7.127258  4.166306  2.212285
  S    -3.892757  1.240811 -0.415933
  S    -4.153021  4.852871 -0.681880
  S    -4.480139  1.806418  3.698724
  S    -4.829873  5.303761  3.474203
