16  
    
  C     2.925361  5.478314  3.880752
  C     2.407657  8.606317  3.283492
  C     1.785606  4.719665  3.390171
  C     1.216802  8.041138  2.616082
  N     3.927398  5.564609  3.016882
  N     3.499083  8.695329  2.535360
  N     1.823013  4.401060  2.088965
  N     1.469105  7.716608  1.338664
  N     1.156067  5.451261  5.777051
  N     0.596179  8.401815  5.076571
  S     0.419530  4.809907  4.410144
  S    -0.134724  7.879809  3.694648
  S     3.368317  4.743106  1.683419
  S     2.971797  8.245661  1.002922
  S     2.798978  5.759129  5.576122
  S     2.125443  8.805905  5.000165
