16  
    
  C    -4.567644  0.997929  1.581355
  C    -4.836673  4.643966  1.604236
  C    -5.845658  0.884675  0.900695
  C    -6.084119  4.374350  0.905038
  N    -3.502820  1.206792  0.796296
  N    -3.774217  4.829846  0.843197
  N    -5.697066  0.838743 -0.424339
  N    -5.956586  4.374951 -0.419352
  N    -6.304653  0.725181  3.387099
  N    -6.608574  4.240954  3.401522
  S    -7.172666  0.572157  2.002009
  S    -7.397901  4.043760  1.929364
  S    -4.142631  1.046704 -0.718821
  S    -4.370438  4.779874 -0.704389
  S    -4.707394  0.945024  3.327550
  S    -4.958854  4.508738  3.339115
