16  
    
  C    -2.425903  2.302732  2.150101
  C    -2.651789  5.637768  2.102142
  C    -3.748070  2.110551  1.532579
  C    -3.838048  5.154735  1.440640
  N    -1.388068  2.404393  1.291471
  N    -1.647877  5.866094  1.310109
  N    -3.593722  1.847140  0.231764
  N    -3.766466  5.073804  0.123415
  N    -4.180287  1.919438  4.032688
  N    -4.373281  5.249762  3.925007
  S    -5.027559  1.818040  2.658675
  S    -5.118756  4.994491  2.513358
  S    -1.993440  2.042551 -0.210313
  S    -2.314147  5.653519 -0.263561
  S    -2.612049  2.345724  3.910764
  S    -2.773627  5.728425  3.861419
