16  
    
  C    -0.425225  3.370776  2.704492
  C    -0.341828  7.045048  2.514391
  C    -1.365011  2.498620  2.086758
  C    -1.483676  6.415999  1.873919
  N     0.605281  3.625432  1.929878
  N     0.741139  7.109102  1.747834
  N    -1.144684  2.208271  0.802848
  N    -1.193710  6.044959  0.625666
  N    -2.273950  3.067135  4.500976
  N    -2.156059  6.994571  4.277124
  S    -2.807324  2.307061  3.061858
  S    -2.863544  6.336937  2.925559
  S     0.386352  2.821259  0.494005
  S     0.321855  6.595172  0.288931
  S    -0.716923  3.726612  4.400247
  S    -0.569734  7.471211  4.140654
