16  
    
  C     0.190505  3.475808  2.336320
  C     0.268288  7.543565  2.867897
  C    -1.162208  3.373188  1.731958
  C    -0.825224  6.784481  2.277878
  N     1.173097  3.578734  1.409464
  N     1.269859  7.758920  2.014578
  N    -1.084176  3.181887  0.418826
  N    -0.654097  6.385705  1.013503
  N    -1.603472  3.349540  4.229443
  N    -1.515077  7.181010  4.640294
  S    -2.406990  3.007446  2.828728
  S    -2.191727  6.601459  3.257188
  S     0.440899  3.543780 -0.069954
  S     0.821380  6.936325  0.682128
  S     0.079056  3.582534  4.063734
  S     0.005948  7.920630  4.552924
