16  
    
  C     3.160315  5.108264  3.501001
  C     3.361356  8.933671  3.692980
  C     1.930631  4.884886  2.843011
  C     2.074738  8.777400  3.033591
  N     4.231587  5.031978  2.710076
  N     4.386671  8.727738  2.910667
  N     1.989530  4.566840  1.556806
  N     2.185038  8.554753  1.686709
  N     1.358555  5.131820  5.401610
  N     1.737568  9.023369  5.705723
  S     0.597602  4.721357  4.019733
  S     0.834076  9.139750  4.311449
  S     3.631503  4.636792  1.151209
  S     3.822790  8.408815  1.419854
  S     2.998545  5.282576  5.190497
  S     3.423303  9.264704  5.370379
