16  
    
  C    -3.151494  1.915503  1.797141
  C    -3.064701  5.744115  2.067373
  C    -4.249090  1.321522  1.038571
  C    -4.361142  5.370410  1.481312
  N    -2.069395  2.192403  1.100110
  N    -2.181346  6.096989  1.149982
  N    -3.976239  1.124655 -0.257305
  N    -4.374462  5.319231  0.152763
  N    -5.160142  1.622905  3.524638
  N    -4.838213  5.377417  4.050756
  S    -5.699304  1.161779  2.007537
  S    -5.654944  5.115367  2.645705
  S    -2.485406  1.766685 -0.506070
  S    -2.865895  5.763879 -0.363944
  S    -3.541752  2.157110  3.496155
  S    -3.174572  5.833616  3.859728
