16  
    
  C    -5.359118  1.176027  1.690287
  C    -5.129818  4.738526  1.403753
  C    -6.665643  0.834888  1.065539
  C    -6.361035  4.331723  0.769868
  N    -4.282295  1.055403  0.910195
  N    -4.088764  4.733366  0.586329
  N    -6.611972  0.703929 -0.247674
  N    -6.325574  4.060667 -0.533562
  N    -7.198014  0.990624  3.522131
  N    -7.000574  5.160011  3.096613
  S    -8.025128  0.677078  2.130330
  S    -7.764926  4.491615  1.783257
  S    -4.939391  0.762863 -0.628680
  S    -4.759646  4.356237 -0.908453
  S    -5.539105  1.296900  3.395624
  S    -5.300245  5.160147  3.110654
