16  
    
  C    -0.376890  3.199123  2.729093
  C    -0.303151  7.039482  2.480365
  C    -1.552918  2.604647  2.027530
  C    -1.500820  6.342233  1.938884
  N     0.631915  3.429305  1.927509
  N     0.698578  7.145640  1.642367
  N    -1.380188  2.505843  0.699065
  N    -1.378732  5.856239  0.725286
  N    -2.135134  2.959796  4.520127
  N    -2.040519  6.907442  4.358740
  S    -2.860186  2.386040  3.174850
  S    -2.690508  6.004729  3.124735
  S     0.222027  2.919639  0.408844
  S     0.089881  6.423250  0.226404
  S    -0.616153  3.644059  4.389570
  S    -0.481635  7.530805  4.105953
