16  
    
  C    -2.739735  2.653061  2.296462
  C    -2.697404  6.198018  1.999362
  C    -3.836159  1.959314  1.719541
  C    -3.828110  5.655030  1.206335
  N    -1.730915  2.956425  1.482327
  N    -1.739190  6.615071  1.202330
  N    -3.721617  1.746527  0.434972
  N    -3.649750  5.586306 -0.071075
  N    -4.400394  2.149571  4.229376
  N    -4.439333  5.510697  3.678043
  S    -5.066481  1.427520  2.895681
  S    -5.230831  5.270570  2.215449
  S    -2.270301  2.419887 -0.030818
  S    -2.052892  6.152102 -0.308921
  S    -2.891634  2.822594  4.035006
  S    -2.978397  6.300523  3.664842
