16  
    
  C    -1.866354  2.383703  2.557925
  C    -1.673194  5.811970  2.355303
  C    -3.127211  2.182065  1.822523
  C    -2.909633  5.628614  1.579791
  N    -0.859447  2.575333  1.726251
  N    -0.585788  5.892884  1.639154
  N    -3.013190  2.039009  0.500334
  N    -2.750975  5.705145  0.263413
  N    -3.682227  2.162752  4.378203
  N    -3.623648  5.552282  4.132543
  S    -4.475130  1.974172  2.933322
  S    -4.288550  5.336363  2.620988
  S    -1.419581  2.473655  0.192580
  S    -1.081399  5.884449  0.006687
  S    -2.044870  2.472152  4.284152
  S    -2.033109  5.900697  4.064282
