16  
    
  C     0.090515  3.584470  2.385684
  C     0.282543  7.527699  2.817530
  C    -1.246809  3.305980  1.796260
  C    -0.805316  6.822643  2.211835
  N     1.065700  3.706871  1.497342
  N     1.318291  7.618695  2.015451
  N    -1.156701  2.990517  0.500170
  N    -0.641456  6.544228  0.918128
  N    -1.656338  3.516392  4.287220
  N    -1.402407  7.312871  4.687040
  S    -2.530925  3.037436  2.930971
  S    -2.131826  6.604089  3.342720
  S     0.413344  3.353637  0.010871
  S     0.951789  7.100994  0.527766
  S    -0.094908  3.906505  4.058022
  S     0.092566  7.946260  4.463743
