16  
    
  C    -4.141378  1.430728  1.929442
  C    -3.942538  5.205878  1.941882
  C    -5.440812  1.193232  1.319650
  C    -5.138748  4.739534  1.388015
  N    -3.108207  1.474509  1.102707
  N    -2.875033  5.121305  1.152990
  N    -5.334892  0.942201  0.024352
  N    -5.098959  4.333641  0.126671
  N    -5.832371  1.394284  3.839476
  N    -5.653801  5.366387  3.814056
  S    -6.717138  0.997883  2.466353
  S    -6.463468  4.722929  2.534213
  S    -3.804766  1.119892 -0.405259
  S    -3.485123  4.446343 -0.250805
  S    -4.225036  1.767077  3.594506
  S    -4.104159  5.729156  3.600635
