16  
    
  C     0.970841  4.197689  2.619694
  C     1.137189  7.678947  3.154406
  C    -0.125765  3.332690  2.224202
  C    -0.179855  7.280195  2.521695
  N     1.978831  4.095497  1.745053
  N     2.131692  7.717466  2.277207
  N    -0.005652  2.853950  0.987435
  N    -0.137354  7.092319  1.197254
  N    -0.760846  4.330879  4.501580
  N    -0.624951  7.521514  5.060213
  S    -1.476367  3.420900  3.368452
  S    -1.490917  7.194531  3.663380
  S     1.484701  3.356448  0.400878
  S     1.435324  7.344036  0.837535
  S     0.863969  4.775199  4.240548
  S     1.004115  8.022602  4.871038
