16  
    
  C    -3.065501  2.155228  1.772957
  C    -2.958205  5.927061  1.960628
  C    -4.170108  1.502251  1.056365
  C    -4.248070  5.456057  1.500268
  N    -2.067494  2.495700  0.985020
  N    -1.988600  6.073294  1.080974
  N    -4.004800  1.505618 -0.262883
  N    -4.179562  5.256491  0.191351
  N    -4.837954  1.624242  3.463638
  N    -4.593901  5.608243  3.971415
  S    -5.513168  1.115580  2.033655
  S    -5.512999  5.276957  2.660791
  S    -2.463232  2.183167 -0.553927
  S    -2.768458  5.770200 -0.406437
  S    -3.321060  2.313673  3.465227
  S    -2.981839  6.062826  3.680920
