16  
    
  C    -1.851195  2.497192  2.411629
  C    -1.701721  5.900785  2.402079
  C    -3.103848  2.309073  1.790736
  C    -2.890100  5.564584  1.686273
  N    -0.763234  2.605709  1.639784
  N    -0.585312  6.127073  1.701846
  N    -2.992004  2.327061  0.447002
  N    -2.703046  5.423544  0.361999
  N    -3.637105  2.341798  4.298108
  N    -3.630273  5.747829  4.094380
  S    -4.387819  2.006843  2.869653
  S    -4.342311  5.313560  2.590738
  S    -1.375843  2.371445  0.127493
  S    -1.126913  5.943300  0.116211
  S    -1.993032  2.529840  4.190361
  S    -1.990304  5.962638  4.069754
