16  
    
  C     2.985475  5.296148  3.833454
  C     2.628970  8.492319  3.165043
  C     1.670844  5.172030  3.244341
  C     1.359903  8.235866  2.576305
  N     3.974179  5.182677  2.944142
  N     3.636750  8.483982  2.348143
  N     1.646331  4.668103  1.998444
  N     1.385866  8.034785  1.264346
  N     1.298006  5.535817  5.755235
  N     1.040369  8.997428  5.138216
  S     0.432964  5.409919  4.396492
  S     0.164403  8.284595  3.889382
  S     3.223210  4.664963  1.473050
  S     3.009668  8.254515  0.847834
  S     2.919334  5.739151  5.540844
  S     2.674314  9.073964  4.719821
