16  
    
  C    -3.412273  1.590176  2.047432
  C    -3.111678  5.439958  2.069555
  C    -4.659740  1.235546  1.477977
  C    -4.337290  5.083544  1.482671
  N    -2.374143  1.528955  1.202516
  N    -2.094532  5.552844  1.233429
  N    -4.566184  1.054896  0.158703
  N    -4.293024  4.810034  0.194287
  N    -5.152469  1.620565  4.005903
  N    -4.949790  5.190015  3.898295
  S    -5.962845  1.174976  2.633953
  S    -5.704546  4.942187  2.499872
  S    -2.956230  1.241010 -0.296713
  S    -2.724563  5.117161 -0.247683
  S    -3.524153  1.740302  3.867386
  S    -3.365077  5.682633  3.728134
