16  
    
  C    -4.328207  1.749007  1.922043
  C    -4.350697  5.200711  1.761727
  C    -5.480581  1.089986  1.272312
  C    -5.637892  4.788307  1.212032
  N    -3.209057  1.717002  1.202480
  N    -3.381655  5.250277  0.841224
  N    -5.188119  0.701691  0.033597
  N    -5.628531  4.544260 -0.080687
  N    -6.074779  1.489883  3.673415
  N    -6.128041  5.149655  3.660314
  S    -6.835337  0.987874  2.258424
  S    -6.965829  4.652037  2.234798
  S    -3.624835  0.983467 -0.255102
  S    -4.090434  4.843861 -0.609854
  S    -4.507419  2.136596  3.621895
  S    -4.445195  5.628866  3.429763
