16  
    
  C    -0.346725  3.359415  2.667575
  C    -0.427375  6.955153  2.434669
  C    -1.611766  3.209974  2.031091
  C    -1.608313  6.401305  1.848882
  N     0.661613  3.387529  1.809979
  N     0.569466  7.166101  1.559898
  N    -1.623817  2.976724  0.731356
  N    -1.622628  6.313609  0.526596
  N    -2.091865  3.232382  4.652617
  N    -2.121629  6.712001  4.324655
  S    -2.894632  2.886589  3.196319
  S    -2.922942  6.179900  2.995865
  S    -0.042737  3.256473  0.275957
  S    -0.121572  6.736421  0.105842
  S    -0.433526  3.686028  4.406347
  S    -0.517891  7.114298  4.138795
