16  
    
  C    -4.134515  1.391120  1.777785
  C    -4.114296  5.236086  1.982132
  C    -5.424968  1.180082  1.073387
  C    -5.425579  4.985497  1.341726
  N    -3.027188  1.263269  1.035373
  N    -3.095945  5.230944  1.147175
  N    -5.208637  1.165238 -0.248903
  N    -5.396139  4.886792  0.004607
  N    -6.080507  1.535146  3.497234
  N    -5.894343  5.189556  3.865740
  S    -6.842640  1.269569  2.028962
  S    -6.756788  4.948020  2.414242
  S    -3.630407  1.154969 -0.539478
  S    -3.783746  4.868048 -0.330544
  S    -4.368011  1.573014  3.465759
  S    -4.206033  5.302537  3.662283
