16  
    
  C    -0.362541  3.461522  2.721178
  C    -0.558979  6.891672  2.515165
  C    -1.565837  2.997058  2.136775
  C    -1.759587  6.430488  1.838348
  N     0.684812  3.524322  1.905444
  N     0.470149  7.114138  1.699160
  N    -1.536113  3.048777  0.823476
  N    -1.581229  6.159896  0.549282
  N    -2.070670  3.230262  4.614746
  N    -2.349513  6.728210  4.438963
  S    -2.891665  2.900195  3.271574
  S    -3.068134  6.114745  3.052325
  S     0.047204  3.234422  0.385919
  S     0.000725  6.753177  0.113896
  S    -0.547616  3.739613  4.478213
  S    -0.737920  7.094280  4.246322
