16  
    
  C    -1.823223  2.357658  2.029298
  C    -1.854503  6.044499  2.112821
  C    -2.966944  1.962258  1.260327
  C    -3.046736  5.712731  1.432861
  N    -0.741712  2.354651  1.273311
  N    -0.849477  6.334973  1.285006
  N    -2.825831  1.841706 -0.051124
  N    -2.961502  5.530971  0.140226
  N    -3.674867  2.020426  3.794556
  N    -3.566459  5.859839  4.028956
  S    -4.414370  1.876854  2.300173
  S    -4.420752  5.736677  2.591919
  S    -1.210445  2.111087 -0.302841
  S    -1.294958  5.848297 -0.214922
  S    -2.028437  2.407623  3.748915
  S    -1.981800  6.267274  3.795134
