16  
    
  C    -2.063377  2.452976  1.990079
  C    -2.089042  5.735941  2.222133
  C    -3.314507  1.948518  1.400440
  C    -3.393082  5.574061  1.540140
  N    -1.056261  2.504069  1.130172
  N    -1.047430  5.774783  1.358034
  N    -3.266381  1.763092  0.088510
  N    -3.318798  5.481702  0.214638
  N    -3.823788  2.360097  3.894386
  N    -3.846258  5.838460  4.070770
  S    -4.662274  1.907021  2.513113
  S    -4.721260  5.425513  2.677834
  S    -1.724067  2.081042 -0.367193
  S    -1.702767  5.755706 -0.117899
  S    -2.186596  2.534622  3.661189
  S    -2.195523  6.134826  3.874301
