16  
    
  C    -4.088547  1.431983  1.682173
  C    -4.091432  5.230290  1.937451
  C    -5.333898  1.214917  0.999230
  C    -5.390740  5.082649  1.242632
  N    -2.977321  1.265600  0.945861
  N    -3.048563  5.248987  1.115435
  N    -5.204616  1.143438 -0.331547
  N    -5.280975  5.153205 -0.101215
  N    -5.935219  1.570774  3.565451
  N    -5.913427  4.825612  3.829448
  S    -6.722015  1.324910  2.117710
  S    -6.660619  4.923200  2.348885
  S    -3.558036  1.124748 -0.689199
  S    -3.634804  5.272021 -0.401131
  S    -4.276020  1.675549  3.378910
  S    -4.281223  5.264420  3.696004
