16  
    
  C    -5.566899  0.887643  1.496371
  C    -5.453652  4.826798  1.245532
  C    -6.733594  0.429332  0.856462
  C    -6.685066  4.256762  0.692826
  N    -4.515333  0.941052  0.658763
  N    -4.526672  5.083595  0.338026
  N    -6.624113  0.267067 -0.471181
  N    -6.623771  4.128134 -0.647081
  N    -7.339656  0.826051  3.261505
  N    -6.907299  4.309059  3.203903
  S    -8.102719  0.226262  1.919363
  S    -7.834669  3.955047  1.877452
  S    -5.071976  0.602516 -0.820462
  S    -5.118564  4.644793 -1.113906
  S    -5.751860  1.018717  3.164656
  S    -5.443908  5.041535  2.935150
