16  
    
  C    -1.493817  2.710169  2.314695
  C    -1.458631  6.450781  2.243168
  C    -2.571258  2.002624  1.625051
  C    -2.698162  5.973297  1.645669
  N    -0.349097  2.769284  1.578336
  N    -0.502320  6.776469  1.352453
  N    -2.357666  1.828293  0.300134
  N    -2.601272  5.763511  0.342393
  N    -3.445910  2.455807  4.032997
  N    -3.136726  6.206143  4.223696
  S    -4.036821  1.756930  2.608158
  S    -3.992478  5.969787  2.845742
  S    -0.803215  2.319188  0.047169
  S    -0.997802  6.140064 -0.143238
  S    -1.881878  3.034054  3.947325
  S    -1.539154  6.717546  4.043808
