16  
    
  C    -0.380874  3.191940  2.665264
  C    -0.326420  6.999257  2.439493
  C    -1.598690  2.757301  2.043694
  C    -1.483869  6.185708  1.964743
  N     0.675325  3.364341  1.863649
  N     0.653000  7.120650  1.538953
  N    -1.388409  2.419719  0.773889
  N    -1.290819  5.916503  0.666941
  N    -2.056188  2.894865  4.607319
  N    -1.996114  6.871180  4.435783
  S    -2.862910  2.444833  3.182193
  S    -2.688186  5.986318  3.199708
  S     0.144178  2.962334  0.351335
  S     0.160130  6.477451  0.137410
  S    -0.545880  3.537149  4.362196
  S    -0.517830  7.507707  4.078972
