16  
    
  C    -3.387463  1.764549  1.604990
  C    -3.730904  5.574822  1.703857
  C    -4.638658  1.226943  1.000880
  C    -4.876785  5.094417  1.020732
  N    -2.304030  1.897943  0.816277
  N    -2.738480  5.748365  0.864458
  N    -4.421028  0.890761 -0.267581
  N    -4.781889  4.917227 -0.304715
  N    -5.104225  1.454657  3.563814
  N    -5.533554  5.200443  3.514442
  S    -5.861235  0.823437  2.164982
  S    -6.235004  4.830248  2.047917
  S    -2.842811  1.236317 -0.691181
  S    -3.250227  5.506679 -0.638752
  S    -3.555508  2.121232  3.301961
  S    -3.846248  5.609285  3.477423
