16  
    
  C    -1.556200  2.840204  2.013662
  C    -1.128392  6.875762  2.248632
  C    -2.691630  2.211583  1.338738
  C    -2.436340  6.451904  1.673221
  N    -0.493111  3.122438  1.242170
  N    -0.113563  6.918063  1.360509
  N    -2.345833  1.945913  0.079932
  N    -2.410880  6.218901  0.346851
  N    -3.289852  2.401245  3.796842
  N    -2.759551  7.019997  4.168499
  S    -3.863549  1.653441  2.442050
  S    -3.688536  6.421657  2.874779
  S    -0.891229  2.597460 -0.273653
  S    -0.851179  6.631112 -0.091208
  S    -1.903623  3.298715  3.680631
  S    -1.056587  7.137460  3.929364
