16  
    
  C    -2.653809  2.571663  2.129671
  C    -2.474645  6.166122  2.086380
  C    -3.857190  2.112562  1.515253
  C    -3.628967  5.542820  1.426694
  N    -1.674469  2.827003  1.280756
  N    -1.408398  6.468064  1.313147
  N    -3.726119  1.714089  0.231186
  N    -3.423449  5.573033  0.073953
  N    -4.340059  2.462886  4.029900
  N    -4.465424  6.129467  3.713210
  S    -5.108586  1.855870  2.709911
  S    -5.071369  5.342624  2.367581
  S    -2.175614  2.203616 -0.215877
  S    -1.862955  6.115250 -0.214796
  S    -2.755849  2.856197  3.846683
  S    -2.899412  6.661644  3.690209
