16  
    
  C    -5.461664  0.960069  1.409304
  C    -5.102316  4.972628  1.290909
  C    -6.659624  0.429391  0.739895
  C    -6.200668  4.204442  0.747783
  N    -4.454092  1.217019  0.588802
  N    -4.266087  5.365011  0.371736
  N    -6.593322  0.219498 -0.541689
  N    -6.229620  4.069298 -0.551146
  N    -7.229547  0.510161  3.263193
  N    -6.612234  4.364196  3.265527
  S    -8.017545  0.171281  1.819633
  S    -7.426606  3.885597  1.892029
  S    -5.070120  0.797926 -0.951745
  S    -4.886139  4.841044 -1.098737
  S    -5.708104  1.155351  3.057232
  S    -5.233697  5.260391  3.054337
