16  
    
  C     2.534648  4.705501  3.530324
  C     2.465361  8.733329  3.428039
  C     1.338642  4.429537  2.763426
  C     1.229250  8.195916  2.914648
  N     3.589535  5.036946  2.756491
  N     3.465056  8.892335  2.551121
  N     1.449814  4.330175  1.441844
  N     1.308119  7.834328  1.609279
  N     0.519873  4.464951  5.250298
  N     0.987971  8.407499  5.508221
  S     0.032916  3.921073  3.726028
  S     0.041987  8.008055  4.186030
  S     3.039634  4.715911  1.178304
  S     2.827036  8.365359  1.085622
  S     2.136081  4.988545  5.232481
  S     2.569491  8.880305  5.093365
