16  
    
  C    -4.555582  0.973267  1.669551
  C    -4.776246  4.526321  1.548075
  C    -5.786380  0.641446  0.975952
  C    -5.996555  4.261879  0.824084
  N    -3.492191  1.152448  0.879469
  N    -3.729014  4.930612  0.825541
  N    -5.724928  0.770477 -0.342877
  N    -5.843626  4.437745 -0.500484
  N    -6.327724  0.670223  3.635945
  N    -6.653888  4.298027  3.395762
  S    -7.068881  0.527849  2.137858
  S    -7.369881  3.945483  1.975869
  S    -4.028620  1.257798 -0.699906
  S    -4.263483  4.954025 -0.728507
  S    -4.651775  1.028629  3.441810
  S    -5.010228  4.450383  3.261733
