16  
    
  C    -3.599144  1.828546  1.796950
  C    -3.944927  5.320720  1.736831
  C    -4.855072  1.444739  1.192276
  C    -5.061783  4.770714  1.056186
  N    -2.654815  2.274012  0.955082
  N    -2.919336  5.630824  0.965696
  N    -4.751502  1.351770 -0.123232
  N    -4.951420  4.651198 -0.277202
  N    -5.263956  1.255677  3.750654
  N    -5.867130  5.133153  3.463136
  S    -6.174875  1.178006  2.340939
  S    -6.421197  4.342081  2.120649
  S    -3.306567  1.941157 -0.588187
  S    -3.427274  5.209423 -0.627014
  S    -3.751063  2.032974  3.541956
  S    -4.206313  5.433645  3.501228
