16  
    
  C     0.152363  3.381496  2.310713
  C     0.215852  7.340216  2.853753
  C    -1.084509  3.219621  1.657922
  C    -0.896208  6.695035  2.218727
  N     1.098443  3.804281  1.456088
  N     1.265565  7.552471  2.073220
  N    -1.012426  3.084662  0.307464
  N    -0.745358  6.488532  0.892892
  N    -1.476285  3.009466  4.223549
  N    -1.687226  7.235610  4.704543
  S    -2.359866  2.915512  2.832584
  S    -2.347709  6.566744  3.368109
  S     0.569562  3.479067 -0.068451
  S     0.804391  7.016328  0.585024
  S     0.128230  3.411184  4.060544
  S    -0.135138  7.775930  4.536454
