16  
    
  C    -0.381249  3.295733  2.564920
  C    -0.177013  7.041944  2.359644
  C    -1.606912  2.729011  1.958090
  C    -1.472536  6.716844  1.687020
  N     0.615154  3.350325  1.707809
  N     0.796695  7.150073  1.433686
  N    -1.545557  2.605416  0.634625
  N    -1.339239  6.449677  0.406126
  N    -2.067451  3.218445  4.442489
  N    -2.068026  6.739623  4.264848
  S    -2.887948  2.715522  3.143498
  S    -2.817926  6.575564  2.808394
  S     0.052921  2.972786  0.209267
  S     0.194038  6.867503 -0.086790
  S    -0.463909  3.579378  4.279486
  S    -0.473588  7.171185  4.094499
