16  
    
  C     2.863128  5.207484  3.829513
  C     2.440766  8.493162  3.426691
  C     1.655798  4.644805  3.265041
  C     1.305450  7.945065  2.713298
  N     3.846536  5.395026  2.937288
  N     3.463223  8.771753  2.601257
  N     1.877649  4.105493  2.049159
  N     1.431850  7.881382  1.400573
  N     1.233112  5.083086  5.757793
  N     0.351213  8.513827  4.983867
  S     0.300169  4.716604  4.507935
  S    -0.126828  7.573638  3.669105
  S     3.333054  4.744259  1.521401
  S     2.966390  8.291801  1.104084
  S     2.745289  5.720816  5.517115
  S     1.955083  8.929555  5.122202
