16  
    
  C     3.104322  5.029092  3.468389
  C     3.357833  8.881866  3.705988
  C     1.899248  4.495155  2.919965
  C     2.034482  8.692358  3.250628
  N     4.148382  5.079276  2.637431
  N     4.302478  8.570490  2.742599
  N     1.958868  4.409533  1.575608
  N     1.888204  8.282311  1.991264
  N     1.453431  4.999495  5.426974
  N     1.802738  9.394019  5.706828
  S     0.570761  4.687616  4.072889
  S     0.821628  9.067105  4.394244
  S     3.527627  4.725844  1.175805
  S     3.435278  8.205251  1.389060
  S     3.023360  5.359951  5.133603
  S     3.410748  9.223696  5.424619
