16  
    
  C    -1.232971  3.479340  2.139947
  C    -1.072289  7.109306  2.644085
  C    -2.377627  2.709816  1.612526
  C    -2.349943  6.900300  1.971974
  N    -0.324952  3.638498  1.200568
  N    -0.043932  7.247389  1.812031
  N    -2.360085  2.562409  0.307050
  N    -2.324574  6.699627  0.666389
  N    -2.748157  2.917475  4.150176
  N    -2.754139  6.602575  4.453758
  S    -3.586460  2.363466  2.806918
  S    -3.651782  6.667801  3.069268
  S    -0.979289  3.214762 -0.251473
  S    -0.694006  6.878103  0.310658
  S    -1.190207  3.477401  3.836524
  S    -1.189834  6.993520  4.352834
