16  
    
  C    -4.456604  1.446120  1.883852
  C    -4.659892  4.828123  1.668642
  C    -5.577132  0.756641  1.334565
  C    -5.736146  4.312268  0.816727
  N    -3.472316  1.820872  1.062986
  N    -3.556945  5.226137  1.021191
  N    -5.560854  0.778147  0.021345
  N    -5.486379  4.417920 -0.487495
  N    -6.038220  0.870952  3.885415
  N    -6.350068  3.919694  3.296697
  S    -6.804591  0.282520  2.446220
  S    -7.092931  3.765009  1.785425
  S    -4.109920  1.392586 -0.390641
  S    -3.973020  5.048316 -0.554525
  S    -4.428210  1.337793  3.617278
  S    -4.912957  4.726912  3.375703
