16  
    
  C     2.999140  5.412598  3.913851
  C     2.357665  8.580445  3.215696
  C     1.761487  4.907964  3.371697
  C     1.191768  8.071257  2.584100
  N     3.956772  5.556708  2.980627
  N     3.476803  8.729347  2.462929
  N     1.863556  4.461675  2.133591
  N     1.450791  7.700476  1.324797
  N     1.145946  5.556008  5.716630
  N     0.654741  8.314352  5.114220
  S     0.416022  4.828802  4.446473
  S    -0.171659  7.976906  3.717281
  S     3.393833  4.755486  1.658637
  S     3.018805  8.222485  1.008157
  S     2.762212  5.806957  5.626358
  S     2.250091  8.800076  4.928462
