16  
    
  C    -2.283416  2.566041  1.916896
  C    -2.191123  5.903224  2.187192
  C    -3.570021  2.026811  1.413100
  C    -3.424594  5.475781  1.555884
  N    -1.266684  2.534465  1.061926
  N    -1.167623  6.231800  1.342426
  N    -3.512004  1.780138  0.111863
  N    -3.278115  5.284494  0.239874
  N    -3.939627  2.386930  3.936221
  N    -4.121297  5.917949  4.016786
  S    -4.799759  2.009301  2.557788
  S    -4.884559  5.426208  2.596468
  S    -1.976507  2.087685 -0.416295
  S    -1.739694  5.663435 -0.142638
  S    -2.319750  2.750592  3.657122
  S    -2.442624  6.164856  3.959741
