16  
    
  C     2.291552  4.590487  3.167672
  C     2.102671  8.992228  3.402303
  C     0.998475  4.305150  2.578008
  C     0.911915  8.493775  2.764667
  N     3.225966  4.974338  2.313994
  N     3.151395  9.145844  2.614087
  N     1.030041  4.460200  1.276830
  N     1.128748  8.131580  1.500176
  N     0.599199  4.259538  5.099682
  N     0.398599  8.453658  5.306012
  S    -0.312650  3.921230  3.731197
  S    -0.442988  8.334420  3.865163
  S     2.555093  4.956307  0.802164
  S     2.674333  8.596207  1.153718
  S     2.158812  4.739179  4.924173
  S     1.993374  9.044333  5.181511
