16  
    
  C    -5.237475  0.960812  1.386948
  C    -5.451532  4.651684  1.583105
  C    -6.509115  0.514368  0.759566
  C    -6.747073  4.324756  1.004041
  N    -4.278591  1.333812  0.557038
  N    -4.461441  4.796065  0.731867
  N    -6.428478  0.349733 -0.550930
  N    -6.742717  4.115814 -0.301415
  N    -7.102770  0.916153  3.264157
  N    -6.976356  4.219210  3.558134
  S    -7.825558  0.373918  1.836172
  S    -8.013413  4.275781  2.219153
  S    -4.908050  0.956923 -0.972875
  S    -5.189043  4.485701 -0.736587
  S    -5.525802  1.346243  3.063182
  S    -5.435926  4.897268  3.341516
