16  
    
  C     1.887426  4.195445  3.309215
  C     1.843645  7.766162  3.039714
  C     0.600725  4.065038  2.629798
  C     0.604618  7.361385  2.385617
  N     2.848304  4.267300  2.417798
  N     2.784596  8.199306  2.227570
  N     0.609603  3.852055  1.329913
  N     0.544730  7.480321  1.048908
  N     0.158268  4.080433  5.140313
  N     0.207764  7.347503  4.988265
  S    -0.680118  4.010923  3.757199
  S    -0.669547  7.096489  3.605130
  S     2.223271  4.212523  0.860377
  S     2.142874  8.076629  0.715495
  S     1.788293  4.182279  5.041673
  S     1.768520  7.799147  4.796931
