16  
    
  C    -4.125392  1.339499  1.718442
  C    -4.164321  5.259871  1.942539
  C    -5.380548  1.210386  0.979233
  C    -5.398286  5.207487  1.225121
  N    -3.055491  1.228953  0.927910
  N    -3.063464  5.202740  1.185600
  N    -5.207345  1.141860 -0.335709
  N    -5.307774  5.056973 -0.098111
  N    -5.956967  1.533092  3.489408
  N    -5.865598  4.905986  3.842648
  S    -6.730309  1.312918  2.071933
  S    -6.734056  4.910888  2.428844
  S    -3.585854  1.143143 -0.611179
  S    -3.649511  5.132353 -0.433949
  S    -4.326069  1.672199  3.429838
  S    -4.270504  5.272179  3.695785
