16  
    
  C    -1.483429  3.296882  1.969422
  C    -1.018968  6.976504  2.441488
  C    -2.561828  2.580124  1.383181
  C    -2.296103  6.788393  1.797934
  N    -0.558662  3.762913  1.147286
  N     0.045328  7.054396  1.618352
  N    -2.310682  2.254183  0.146587
  N    -2.285846  6.790215  0.452114
  N    -3.158323  2.736518  3.870692
  N    -2.651810  6.640781  4.465773
  S    -3.849016  2.143824  2.493244
  S    -3.562622  6.641486  3.058174
  S    -0.935845  3.049397 -0.312754
  S    -0.663780  6.764467  0.124123
  S    -1.679554  3.442130  3.710128
  S    -1.053779  7.096826  4.166819
