16  
    
  C    -4.714941  1.017643  1.432966
  C    -4.665098  4.658763  1.965819
  C    -5.958529  0.775902  0.740250
  C    -5.870140  4.266058  1.287957
  N    -3.604882  1.193313  0.633830
  N    -3.613468  4.812610  1.137790
  N    -5.795240  0.641138 -0.571313
  N    -5.741482  3.994626 -0.014675
  N    -6.606789  0.873263  3.248915
  N    -6.540843  4.541215  3.794767
  S    -7.333394  0.385447  1.864096
  S    -7.259922  4.077479  2.352038
  S    -4.199564  0.901347 -0.919674
  S    -4.212628  4.456002 -0.378672
  S    -4.925942  1.172344  3.185485
  S    -4.860084  4.935795  3.725455
