16  
    
  C     2.004223  4.357623  3.014136
  C     2.047799  7.867727  3.172560
  C     0.775920  4.031690  2.395908
  C     0.853988  7.528100  2.400644
  N     3.040108  4.365017  2.205829
  N     3.150754  8.056377  2.451472
  N     0.821676  3.691892  1.127716
  N     1.007281  7.471413  1.085372
  N     0.249600  4.301685  4.953319
  N     0.100832  7.930901  4.909396
  S    -0.506293  3.939360  3.533718
  S    -0.554727  7.386840  3.442347
  S     2.478113  3.967031  0.706928
  S     2.697256  7.759068  0.875700
  S     1.913203  4.814273  4.731492
  S     1.722462  8.271287  4.847249
