16  
    
  C    -4.656526  0.760477  1.423854
  C    -4.800635  4.513625  1.859685
  C    -5.902959  0.651134  0.739233
  C    -6.031391  4.298390  1.125220
  N    -3.581623  1.018811  0.632407
  N    -3.758662  4.747602  1.070804
  N    -5.754366  0.725425 -0.588153
  N    -5.896356  4.261451 -0.197611
  N    -6.520707  0.836351  3.201651
  N    -6.577563  4.495397  3.659303
  S    -7.357792  0.663305  1.777375
  S    -7.368515  4.196459  2.201935
  S    -4.219417  0.985804 -0.881458
  S    -4.257333  4.540061 -0.461026
  S    -4.854925  1.083411  3.091224
  S    -4.886978  4.776836  3.564333
