16  
    
  C     2.194840  4.380656  2.991676
  C     1.967271  8.409555  3.071843
  C     1.042791  3.847683  2.333519
  C     0.830161  7.675925  2.568176
  N     3.286114  4.542694  2.238868
  N     3.040744  8.471565  2.262138
  N     1.273013  3.678272  1.050421
  N     1.099451  7.161936  1.358702
  N     0.261590  4.297017  4.806072
  N     0.149934  8.661452  4.923055
  S    -0.374286  3.894923  3.266437
  S    -0.504629  7.684624  3.705916
  S     2.893772  3.981514  0.715642
  S     2.596756  7.663858  0.907895
  S     1.928251  4.559918  4.742650
  S     1.779700  9.098309  4.653981
