16  
    
  C    -0.436222  3.660083  2.867243
  C    -0.705670  6.900649  2.707805
  C    -1.520569  2.939934  2.248107
  C    -1.893168  6.405688  1.945680
  N     0.634591  3.736149  2.098227
  N     0.389313  7.085013  1.970298
  N    -1.370038  2.668985  0.952850
  N    -1.623911  6.140230  0.680832
  N    -2.149114  3.221861  4.683275
  N    -2.745313  6.543306  4.316749
  S    -2.914498  2.932920  3.309545
  S    -3.306258  6.035570  2.821826
  S     0.132264  3.206593  0.575639
  S    -0.101261  6.636382  0.417837
  S    -0.593597  3.731920  4.634745
  S    -1.125664  7.052431  4.390480
