16  
    
  C    -4.142934  1.303597  1.800921
  C    -4.165608  5.274716  1.927070
  C    -5.370909  1.241347  1.046059
  C    -5.418163  5.062685  1.335334
  N    -3.056750  1.260626  1.048278
  N    -3.096217  5.219807  1.114088
  N    -5.263359  1.142216 -0.256686
  N    -5.351194  4.980457  0.020353
  N    -6.032642  1.523491  3.480609
  N    -5.892744  5.100976  3.837054
  S    -6.829825  1.274693  1.989239
  S    -6.793836  4.924466  2.426105
  S    -3.623033  1.155989 -0.556642
  S    -3.721973  4.929772 -0.344172
  S    -4.325741  1.612003  3.446126
  S    -4.200442  5.287546  3.664392
