16  
    
  C    -3.496533  1.804957  1.572160
  C    -3.861716  5.285072  1.612613
  C    -4.726311  1.315815  0.974480
  C    -5.129712  4.775191  1.079233
  N    -2.463191  2.138661  0.758294
  N    -2.919127  5.422731  0.683849
  N    -4.585451  1.090423 -0.343989
  N    -5.108106  4.596640 -0.259898
  N    -5.210126  1.585671  3.589267
  N    -5.554802  5.070391  3.606828
  S    -5.878024  0.965688  2.197540
  S    -6.376929  4.491308  2.240854
  S    -3.073211  1.685719 -0.809128
  S    -3.589782  4.928957 -0.721987
  S    -3.648039  2.148615  3.327023
  S    -4.036184  5.569915  3.304925
