16  
    
  C    -0.208957  3.013663  2.622252
  C    -0.237901  7.010209  2.362039
  C    -1.538601  2.674689  2.062767
  C    -1.270511  6.278483  1.735395
  N     0.745510  3.325965  1.736103
  N     0.746466  7.377588  1.529665
  N    -1.454479  2.476833  0.748834
  N    -1.118695  6.166673  0.402664
  N    -1.882189  2.885669  4.577273
  N    -1.940460  6.545698  4.263475
  S    -2.754155  2.375369  3.271864
  S    -2.614305  5.969175  2.849750
  S     0.066527  2.977838  0.249369
  S     0.394703  6.791649  0.000043
  S    -0.319684  3.386626  4.308090
  S    -0.424112  7.180472  4.086175
