16  
    
  C    -3.179615  1.903866  1.888959
  C    -3.202671  5.681465  2.112337
  C    -4.375681  1.543166  1.127442
  C    -4.416359  5.163841  1.451800
  N    -2.054191  2.009092  1.207674
  N    -2.286606  6.081441  1.296352
  N    -4.108664  1.352728 -0.151448
  N    -4.283307  5.073967  0.123175
  N    -5.192357  1.770970  3.645436
  N    -4.805279  5.276970  4.021321
  S    -5.713053  1.164983  2.169641
  S    -5.640669  4.831642  2.595386
  S    -2.455457  1.564822 -0.368683
  S    -2.788190  5.598689 -0.233358
  S    -3.548642  2.005857  3.575313
  S    -3.190189  5.820821  3.844826
