16  
    
  C    -3.188120  2.146603  1.738315
  C    -3.090764  5.891416  1.977210
  C    -4.218546  1.438718  0.987147
  C    -4.410798  5.567065  1.461437
  N    -2.104342  2.365536  1.002096
  N    -2.107919  6.045128  1.050203
  N    -4.012670  1.303075 -0.322043
  N    -4.381743  5.378481  0.165655
  N    -5.019625  1.579376  3.418897
  N    -4.613442  5.385997  4.074748
  S    -5.592046  0.976717  1.958221
  S    -5.633834  5.265057  2.720757
  S    -2.515020  1.890759 -0.536320
  S    -2.810807  5.774856 -0.400945
  S    -3.424571  2.226130  3.436570
  S    -3.092742  5.948796  3.707062
