16  
    
  C    -0.345669  3.270592  2.732396
  C    -0.273160  7.028449  2.587291
  C    -1.452455  2.557180  2.063280
  C    -1.447797  6.419172  1.846059
  N     0.623919  3.685537  1.905564
  N     0.800913  7.183733  1.811681
  N    -1.074283  2.126636  0.851525
  N    -1.241496  6.173251  0.551466
  N    -2.236656  3.052279  4.449566
  N    -2.189884  6.948180  4.232675
  S    -2.824561  2.305988  3.120274
  S    -2.873939  6.424340  2.771984
  S     0.408172  2.812746  0.521313
  S     0.349077  6.627687  0.279942
  S    -0.722510  3.725372  4.313035
  S    -0.572017  7.466730  4.180761
