16  
    
  C    -0.384284  3.268207  2.704776
  C    -0.350717  7.029023  2.481737
  C    -1.429001  2.529854  2.080156
  C    -1.437081  6.411069  1.884302
  N     0.589640  3.672713  1.887577
  N     0.756881  7.123881  1.789240
  N    -1.107390  2.181700  0.848494
  N    -1.233053  6.103174  0.620890
  N    -2.278784  3.050607  4.485745
  N    -2.164469  6.968833  4.239710
  S    -2.809310  2.309430  3.085715
  S    -2.871951  6.379471  2.842559
  S     0.415463  2.817286  0.516266
  S     0.341386  6.625033  0.302014
  S    -0.712614  3.731177  4.358380
  S    -0.559371  7.474384  4.161611
