16  
    
  C    -3.303573  1.744430  2.032426
  C    -3.085835  5.468619  2.055230
  C    -4.625146  1.456112  1.445183
  C    -4.247847  4.892025  1.439579
  N    -2.399584  1.977153  1.096642
  N    -2.016951  5.673234  1.269561
  N    -4.622101  1.270052  0.105059
  N    -4.116810  4.724532  0.150754
  N    -4.919927  1.354598  4.084932
  N    -4.944657  5.187394  3.869224
  S    -5.830592  1.062228  2.708597
  S    -5.600563  4.605900  2.457487
  S    -3.134757  1.719198 -0.439794
  S    -2.507284  5.133373 -0.180314
  S    -3.308854  1.888895  3.840990
  S    -3.356990  5.774825  3.725279
