16  
    
  C     3.035674  5.059305  3.316299
  C     3.092830  9.052752  3.910298
  C     1.812383  4.804043  2.567236
  C     1.872740  8.566008  3.363674
  N     4.122748  5.198766  2.543844
  N     4.040895  9.164547  2.962938
  N     2.055358  4.529544  1.291729
  N     1.801367  8.319293  2.029234
  N     1.104058  5.042822  5.100096
  N     1.248955  8.905231  5.783776
  S     0.461542  4.616405  3.630159
  S     0.487958  8.601571  4.327066
  S     3.662992  4.788588  0.982694
  S     3.302759  8.732378  1.459745
  S     2.762464  5.261773  5.046658
  S     2.844798  9.371199  5.657489
