16  
    
  C    -1.831390  2.385626  2.255947
  C    -1.896446  6.280717  2.280291
  C    -3.087408  1.964387  1.616924
  C    -3.014637  5.537042  1.692944
  N    -0.812185  2.691462  1.414833
  N    -0.905272  6.531459  1.400218
  N    -2.873101  1.712809  0.314195
  N    -3.000144  5.425053  0.338030
  N    -3.561860  2.186571  4.129816
  N    -3.506295  6.050814  4.184594
  S    -4.359744  1.785423  2.710157
  S    -4.209959  5.290001  2.889931
  S    -1.351584  2.177102 -0.072991
  S    -1.450346  5.896534  0.007289
  S    -1.938619  2.588943  3.980473
  S    -2.008546  6.735359  3.952200
