16  
    
  C    -4.425575  1.465208  1.927792
  C    -4.659855  4.784585  1.633172
  C    -5.579365  0.783165  1.334260
  C    -5.741338  4.346222  0.791511
  N    -3.469208  1.819012  1.044625
  N    -3.589891  5.236655  1.001418
  N    -5.587610  0.769901  0.014553
  N    -5.493540  4.457438 -0.525485
  N    -6.063260  0.861645  3.882203
  N    -6.390280  3.875043  3.318407
  S    -6.824979  0.256207  2.451794
  S    -7.123087  3.754057  1.788734
  S    -4.062260  1.387191 -0.437288
  S    -3.951168  5.042060 -0.575837
  S    -4.451744  1.287208  3.622272
  S    -4.911508  4.704904  3.392453
