16  
    
  C     0.517593  3.759513  2.938762
  C     0.568708  7.508177  2.888392
  C    -0.763195  3.397928  2.395730
  C    -0.573093  7.067389  2.105924
  N     1.516948  3.746927  2.041675
  N     1.657883  7.690055  2.183268
  N    -0.814415  3.576520  1.043484
  N    -0.270436  6.842504  0.841528
  N    -1.062717  3.606382  4.948681
  N    -1.392529  7.272916  4.546466
  S    -2.055798  3.287932  3.610961
  S    -2.035319  7.020250  3.076155
  S     0.752602  3.612349  0.571780
  S     1.323029  7.238930  0.582652
  S     0.517386  3.867554  4.650593
  S     0.187332  7.693854  4.545416
