16  
    
  C    -0.342723  3.488060  2.788078
  C    -0.604380  6.890057  2.510107
  C    -1.550789  2.967938  2.158820
  C    -1.731959  6.391041  1.839374
  N     0.688345  3.593391  1.950753
  N     0.447303  7.133456  1.765136
  N    -1.511678  3.021144  0.809636
  N    -1.596222  6.175911  0.520408
  N    -2.098376  3.208211  4.654615
  N    -2.419087  6.711946  4.411679
  S    -2.923690  2.901830  3.282896
  S    -3.097855  6.102552  3.038592
  S     0.071880  3.225750  0.422349
  S    -0.014332  6.721255  0.173385
  S    -0.536011  3.754471  4.480329
  S    -0.792317  7.090758  4.286187
