16  
    
  C    -0.187944  3.197177  2.616222
  C    -0.106251  7.001753  2.484621
  C    -1.303228  2.608746  1.937187
  C    -1.279336  6.612986  1.784174
  N     0.702957  3.758816  1.789139
  N     0.943303  7.240463  1.729740
  N    -1.101408  2.269188  0.666113
  N    -1.214701  6.656397  0.472419
  N    -1.924847  2.834259  4.428653
  N    -1.860851  6.504978  4.278526
  S    -2.627009  2.280979  3.069192
  S    -2.569020  6.040695  2.844605
  S     0.407800  2.984381  0.322222
  S     0.352235  7.171860  0.143568
  S    -0.383428  3.494766  4.338907
  S    -0.220959  6.924521  4.169640
