16  
    
  C    -1.581240  3.281170  1.960597
  C    -1.056794  7.031837  2.433426
  C    -2.564218  2.379188  1.382074
  C    -2.320817  6.812926  1.846005
  N    -0.534916  3.576042  1.189221
  N    -0.065267  7.048813  1.543048
  N    -2.345632  2.150168  0.097946
  N    -2.287385  6.534779  0.552639
  N    -3.226860  2.687520  3.865070
  N    -2.590155  6.604043  4.280017
  S    -3.884006  2.045708  2.438727
  S    -3.573512  6.673955  2.974112
  S    -0.955799  2.998199 -0.322386
  S    -0.697942  6.749518  0.075514
  S    -1.727175  3.422458  3.689169
  S    -1.004417  7.114905  4.148154
