16  
    
  C     0.612733  3.616726  2.735162
  C     0.600088  7.649625  2.645965
  C    -0.644234  3.212029  2.110692
  C    -0.538964  7.048519  2.071270
  N     1.572606  3.774493  1.828072
  N     1.559965  8.015687  1.789541
  N    -0.707524  3.474233  0.795132
  N    -0.469085  6.866774  0.758308
  N    -1.070158  3.232967  4.690716
  N    -0.995616  7.235404  4.619374
  S    -1.907090  3.035151  3.281587
  S    -1.784245  6.644294  3.292548
  S     0.891699  3.639380  0.338700
  S     1.034017  7.608482  0.292980
  S     0.587345  3.500042  4.445781
  S     0.547484  7.782077  4.434871
