16  
    
  C    -4.241845  1.657396  1.889970
  C    -4.211539  5.292791  1.723441
  C    -5.411712  0.930509  1.342300
  C    -5.423461  4.711038  1.208764
  N    -3.199597  1.640912  1.054212
  N    -3.170063  5.272885  0.879044
  N    -5.291751  0.573546  0.037349
  N    -5.248292  4.327921 -0.056815
  N    -6.013378  1.625554  3.802598
  N    -5.855445  5.106297  3.796915
  S    -6.750866  0.955751  2.433809
  S    -6.713855  4.595630  2.415584
  S    -3.665482  1.007582 -0.437997
  S    -3.703285  4.678920 -0.559470
  S    -4.424809  2.190656  3.545812
  S    -4.290240  5.619365  3.420612
