16  
    
  C    -0.302711  3.147675  2.633157
  C    -0.256342  7.091120  2.416199
  C    -1.503655  2.685255  2.048845
  C    -1.333233  6.254355  1.864113
  N     0.610087  3.476767  1.734512
  N     0.715703  7.256596  1.559274
  N    -1.516822  2.462342  0.725733
  N    -1.187551  5.914602  0.596141
  N    -1.934309  2.900616  4.619259
  N    -1.977854  6.753944  4.241744
  S    -2.799530  2.509250  3.223572
  S    -2.604323  5.897527  2.928034
  S     0.029509  2.911914  0.246410
  S     0.180477  6.635141  0.101286
  S    -0.309004  3.307759  4.403491
  S    -0.432090  7.364754  4.074671
