16  
    
  C     1.860881  5.112058  3.140272
  C     2.243968  8.653198  3.261397
  C     0.804858  4.529107  2.339235
  C     1.061867  8.156062  2.623352
  N     2.937998  5.275279  2.437996
  N     3.173517  9.003750  2.352315
  N     1.124038  4.353886  1.061922
  N     1.114073  8.070163  1.282019
  N    -0.009521  4.813238  4.777222
  N     0.423694  8.064922  5.043565
  S    -0.542449  4.111003  3.405226
  S    -0.307873  7.768082  3.584234
  S     2.708702  4.860762  0.862439
  S     2.615408  8.487491  0.875005
  S     1.598065  5.292669  4.854132
  S     1.991976  8.514770  5.033456
