16  
    
  C    -3.755385  1.637647  1.811108
  C    -3.997782  5.476336  1.849107
  C    -5.019061  1.371157  1.169887
  C    -5.135028  5.220296  1.061409
  N    -2.729865  1.794429  0.989131
  N    -2.889306  5.773417  1.151069
  N    -4.987937  1.308240 -0.165285
  N    -4.953493  5.129234 -0.253319
  N    -5.475330  1.542460  3.662635
  N    -5.763683  4.603663  3.485622
  S    -6.351641  1.209841  2.293396
  S    -6.445469  4.676659  2.030235
  S    -3.434562  1.564425 -0.580684
  S    -3.379881  5.654703 -0.443687
  S    -3.851297  1.743516  3.524353
  S    -4.258018  5.285956  3.628594
