16  
    
  C     2.143430  4.742691  3.182128
  C     1.969216  8.934411  3.392757
  C     0.906188  4.530612  2.520339
  C     0.789756  8.441805  2.732384
  N     3.075398  5.170139  2.321394
  N     3.015732  9.181068  2.589194
  N     1.015324  4.395888  1.198701
  N     1.028734  8.205446  1.447729
  N     0.446479  4.335920  5.108492
  N     0.268385  8.534746  5.280467
  S    -0.308039  4.071659  3.554634
  S    -0.526298  8.279688  3.845388
  S     2.499828  4.924442  0.789606
  S     2.613264  8.591588  1.129381
  S     2.085826  4.687428  4.912473
  S     1.892948  8.956453  5.083021
