16  
    
  C    -3.145255  1.917679  1.763123
  C    -3.151227  5.824286  2.034435
  C    -4.184583  1.291744  1.037344
  C    -4.412036  5.414174  1.470192
  N    -2.135790  2.282755  1.010094
  N    -2.220277  6.043723  1.162702
  N    -3.982746  1.160969 -0.266348
  N    -4.412212  5.413863  0.156205
  N    -5.065282  1.580100  3.471061
  N    -4.660295  5.386181  3.995165
  S    -5.689300  1.124867  2.036157
  S    -5.616608  5.206982  2.610623
  S    -2.441530  1.855674 -0.541108
  S    -2.876033  5.773344 -0.328011
  S    -3.564064  2.177978  3.410159
  S    -3.115874  5.883708  3.803832
