16  
    
  C    -0.408319  3.380880  2.659765
  C    -0.226931  6.968841  2.530815
  C    -1.370525  2.529574  2.066414
  C    -1.381904  6.517707  1.812665
  N     0.701561  3.609235  1.963518
  N     0.827305  7.224112  1.777472
  N    -1.084378  2.103379  0.854028
  N    -1.194299  6.272841  0.523140
  N    -2.191691  3.078072  4.444290
  N    -2.228635  6.926215  4.230071
  S    -2.833276  2.294575  3.130607
  S    -2.864999  6.478218  2.740464
  S     0.372150  2.809174  0.500112
  S     0.365698  6.631404  0.241926
  S    -0.726320  3.727640  4.309642
  S    -0.627573  7.441085  4.219675
