16  
    
  C    -5.395494  1.081777  1.572367
  C    -5.172924  4.519511  1.540342
  C    -6.643540  0.799836  0.908312
  C    -6.450805  4.196060  1.074888
  N    -4.414437  1.103698  0.669986
  N    -4.260783  4.611874  0.556713
  N    -6.542791  0.655641 -0.444687
  N    -6.509275  3.970147 -0.237662
  N    -7.157243  1.083348  3.481351
  N    -6.820338  4.614237  3.583894
  S    -7.958275  0.945578  1.993317
  S    -7.737569  4.233313  2.225640
  S    -4.994914  0.873374 -0.833010
  S    -4.980050  4.222597 -0.886087
  S    -5.480341  1.370307  3.288466
  S    -5.263372  4.988590  3.213503
