16  
    
  C     1.530518  4.359990  3.462879
  C     1.412164  7.999926  3.104970
  C     0.207837  4.085977  2.942825
  C     0.160114  7.656662  2.436009
  N     2.463165  4.407425  2.533731
  N     2.456568  8.020640  2.281490
  N     0.098392  4.062015  1.625381
  N     0.246227  7.622102  1.113069
  N    -0.116601  4.688117  5.447600
  N    -0.421417  7.832532  4.907598
  S    -0.992400  4.194024  4.151127
  S    -1.180997  7.400010  3.471182
  S     1.714257  4.145736  1.026727
  S     1.874066  7.899731  0.752283
  S     1.530588  4.840210  5.113565
  S     1.176069  8.198729  4.826012
