16  
    
  C     1.938916  4.824882  2.993853
  C     2.360577  8.553341  3.137997
  C     0.847457  4.083946  2.369584
  C     1.146631  8.070206  2.499509
  N     2.968119  5.086550  2.155381
  N     3.377768  8.621744  2.277907
  N     1.000326  4.090806  1.036986
  N     1.272060  7.892151  1.216416
  N     0.297467  4.330179  4.806943
  N     0.463728  8.327488  4.935287
  S    -0.538654  4.074043  3.453448
  S    -0.186988  7.743249  3.496692
  S     2.549423  4.602662  0.658151
  S     2.746557  8.275205  0.753448
  S     1.807033  5.033065  4.745263
  S     2.045098  8.828808  4.893192
