16  
    
  C    -0.167566  3.311707  2.610847
  C    -0.108093  7.031855  2.496622
  C    -1.249449  2.536827  1.978882
  C    -1.367128  6.598975  1.787882
  N     0.774491  3.739236  1.781140
  N     0.971904  7.272851  1.762538
  N    -0.989991  2.241888  0.706249
  N    -1.202273  6.666030  0.464887
  N    -1.916810  2.831409  4.441283
  N    -1.812602  6.538080  4.306086
  S    -2.595758  2.311270  3.006532
  S    -2.592341  6.084279  2.855178
  S     0.409109  3.040426  0.315454
  S     0.341824  7.196434  0.220987
  S    -0.402955  3.476100  4.307099
  S    -0.162529  6.923578  4.198862
