16  
    
  C     2.186569  4.609590  3.034759
  C     1.941755  8.149489  3.145189
  C     1.075495  3.938920  2.326134
  C     0.817982  7.477974  2.502016
  N     3.267519  4.534796  2.274473
  N     3.003778  8.280336  2.391559
  N     1.260842  3.598372  1.045870
  N     1.102874  7.053670  1.261719
  N     0.249205  4.376891  4.705883
  N     0.116627  8.208195  4.921210
  S    -0.429956  3.977485  3.294328
  S    -0.610788  7.621606  3.515710
  S     2.786451  4.050469  0.764215
  S     2.712142  7.472523  0.969333
  S     1.884775  4.832316  4.785277
  S     1.715821  8.627101  4.748570
