16  
    
  C    -0.913197  3.161049  2.479961
  C    -0.609914  6.592213  2.403106
  C    -2.108729  2.768794  1.835837
  C    -1.836696  6.201846  1.758689
  N     0.137949  3.042937  1.658391
  N     0.403759  6.783718  1.536421
  N    -2.109118  2.661944  0.482505
  N    -1.710362  6.018885  0.439901
  N    -2.649942  3.059769  4.316098
  N    -2.538489  6.359059  4.219495
  S    -3.466632  2.692954  2.951172
  S    -3.260356  6.048002  2.761729
  S    -0.496173  2.803258  0.115348
  S    -0.069165  6.210891  0.030100
  S    -1.060955  3.392547  4.197458
  S    -0.910764  6.655671  4.160064
