16  
    
  C    -3.354427  1.844326  2.025522
  C    -3.082679  5.437502  2.121484
  C    -4.604762  1.471285  1.465638
  C    -4.226666  4.882412  1.435256
  N    -2.437636  2.053928  1.068806
  N    -2.112874  5.708620  1.277783
  N    -4.614726  1.317900  0.149661
  N    -4.093570  4.694982  0.114120
  N    -4.905657  1.339508  4.066182
  N    -4.959300  5.230823  3.852255
  S    -5.791348  1.054515  2.674050
  S    -5.569220  4.533687  2.437873
  S    -3.097607  1.747476 -0.392830
  S    -2.506626  5.117376 -0.213396
  S    -3.305930  1.890381  3.794230
  S    -3.333171  5.814204  3.801828
