16  
    
  C    -0.714599  3.023200  2.690260
  C    -1.339743  6.529415  2.563954
  C    -1.942826  2.685307  2.095715
  C    -2.432682  5.929357  1.863080
  N     0.293675  3.321478  1.859991
  N    -0.307469  6.918531  1.792093
  N    -1.752605  2.296681  0.817372
  N    -2.255553  5.946248  0.532857
  N    -2.517248  3.070549  4.642310
  N    -3.172656  6.078110  4.339033
  S    -3.323422  2.754365  3.165844
  S    -3.756379  5.589271  2.898467
  S    -0.172884  2.626521  0.442191
  S    -0.692750  6.544006  0.198511
  S    -0.828274  3.359008  4.389295
  S    -1.639412  6.602165  4.331081
