16  
    
  C    -2.428474  2.285857  2.141730
  C    -2.644866  5.652332  2.114091
  C    -3.736719  2.108028  1.528407
  C    -3.834231  5.157585  1.455032
  N    -1.384432  2.385936  1.278354
  N    -1.645518  5.847162  1.296172
  N    -3.605242  1.847207  0.223209
  N    -3.763688  5.069076  0.126000
  N    -4.176983  1.934005  4.031509
  N    -4.369342  5.258623  3.937375
  S    -5.016353  1.830081  2.652502
  S    -5.122375  4.992463  2.518592
  S    -1.992553  2.026378 -0.213375
  S    -2.307325  5.654409 -0.271323
  S    -2.605121  2.343514  3.911585
  S    -2.776600  5.725242  3.858765
