16  
    
  C    -3.700367  1.732967  1.815902
  C    -3.923098  5.363254  1.814161
  C    -4.927544  1.496116  1.183308
  C    -5.095197  4.938981  1.071123
  N    -2.741046  1.994895  0.935808
  N    -2.851047  5.748368  1.137626
  N    -4.885606  1.347858 -0.152003
  N    -4.909892  5.084326 -0.231321
  N    -5.491651  1.615449  3.758980
  N    -5.776275  4.681092  3.529180
  S    -6.239504  1.109658  2.351851
  S    -6.523624  4.513134  2.051844
  S    -3.333235  1.733323 -0.577970
  S    -3.328478  5.529462 -0.515007
  S    -3.822426  1.782294  3.595735
  S    -4.230249  5.446665  3.520668
