16  
    
  C    -4.457187  1.633991  1.931820
  C    -4.672459  5.049321  1.697941
  C    -5.633609  0.996679  1.348210
  C    -5.787508  4.437402  1.073952
  N    -3.436854  1.757525  1.117650
  N    -3.644337  5.296716  0.914695
  N    -5.486858  0.838627  0.036548
  N    -5.692873  4.345618 -0.242884
  N    -6.009511  1.094845  3.932588
  N    -6.377852  4.699639  3.525235
  S    -6.813340  0.643356  2.520877
  S    -7.109545  4.053149  2.169442
  S    -3.976317  1.250489 -0.390924
  S    -4.129833  4.888762 -0.625232
  S    -4.397741  1.787142  3.704270
  S    -4.806975  5.232878  3.405261
