16  
    
  C    -2.416137  1.955709  2.043596
  C    -2.522069  5.729440  2.073683
  C    -3.697277  1.845291  1.423647
  C    -3.783280  5.409711  1.415805
  N    -1.445146  1.890727  1.163550
  N    -1.401960  5.742887  1.281057
  N    -3.707909  1.649648  0.098187
  N    -3.582491  5.143265  0.131012
  N    -4.065050  2.234581  3.980844
  N    -4.363902  5.437233  3.902481
  S    -4.960826  2.120736  2.600989
  S    -5.167260  5.175922  2.469781
  S    -2.080685  1.655239 -0.327825
  S    -2.048367  5.419603 -0.300964
  S    -2.424051  2.385873  3.753189
  S    -2.768792  5.887664  3.800973
