16  
    
  C    -1.188309  3.066730  2.367179
  C    -0.869504  6.927074  2.298634
  C    -2.436242  2.803717  1.696109
  C    -2.171106  6.645665  1.798204
  N    -0.166777  3.032212  1.525588
  N     0.077681  7.172126  1.400407
  N    -2.411328  2.640656  0.359275
  N    -2.127652  6.455742  0.479741
  N    -2.946666  3.202055  4.275515
  N    -2.337147  6.530533  4.263938
  S    -3.795730  2.925597  2.831709
  S    -3.416402  6.493889  2.958523
  S    -0.769542  2.698983  0.004746
  S    -0.518975  6.616288 -0.008216
  S    -1.263445  3.248092  4.073314
  S    -0.755801  6.931468  3.993771
