16  
    
  C    -5.559330  0.769008  1.554958
  C    -5.493562  4.692556  1.248512
  C    -6.761424  0.430664  0.815269
  C    -6.763891  4.156774  0.670221
  N    -4.489810  0.881193  0.749966
  N    -4.554566  4.934683  0.324930
  N    -6.703964  0.252081 -0.502722
  N    -6.777809  4.076144 -0.666549
  N    -7.449348  0.577518  3.332955
  N    -7.226906  4.305005  3.245007
  S    -8.196937  0.291608  1.875206
  S    -8.071943  4.022445  1.856528
  S    -5.071482  0.584703 -0.824638
  S    -5.304263  4.631271 -1.176459
  S    -5.813930  1.112424  3.260685
  S    -5.709302  5.010834  3.016907
