16  
    
  C    -1.253921  3.351198  2.131984
  C    -1.089899  6.918780  2.548807
  C    -2.460777  2.712934  1.659956
  C    -2.374858  6.786266  1.891502
  N    -0.293498  3.532639  1.236690
  N    -0.026055  6.953649  1.746958
  N    -2.440107  2.597084  0.348786
  N    -2.318545  6.695348  0.572786
  N    -2.700671  2.931236  4.231630
  N    -2.807295  6.788578  4.495081
  S    -3.649650  2.601483  2.908431
  S    -3.673071  6.546735  3.129316
  S    -0.951090  3.059176 -0.203651
  S    -0.708134  6.977503  0.181397
  S    -1.117093  3.313985  3.887665
  S    -1.211690  7.125564  4.340693
