16  
    
  C     0.484607  3.593834  2.948193
  C     0.589044  7.514416  2.892011
  C    -0.813727  3.666761  2.387765
  C    -0.580150  7.033912  2.146833
  N     1.448068  3.725400  2.037302
  N     1.659432  7.673983  2.124672
  N    -0.881260  3.506070  1.043920
  N    -0.410590  6.821205  0.843687
  N    -1.139796  3.523316  4.947752
  N    -1.433854  7.257623  4.627016
  S    -2.016846  3.301895  3.584275
  S    -2.083623  7.057457  3.102140
  S     0.724599  3.833796  0.539572
  S     1.187316  7.206635  0.597405
  S     0.544086  3.662278  4.691634
  S     0.208373  7.771211  4.628370
