16  
    
  C    -1.297266  3.338304  2.092315
  C    -1.001058  6.823399  2.583101
  C    -2.379318  2.621324  1.525506
  C    -2.313452  6.637922  1.958869
  N    -0.346406  3.627887  1.206748
  N     0.015907  7.212780  1.769807
  N    -2.412805  2.713009  0.191506
  N    -2.234944  6.662562  0.601902
  N    -2.879676  2.882484  4.080189
  N    -2.753814  6.747412  4.501789
  S    -3.601229  2.221384  2.708638
  S    -3.648402  6.707315  3.107022
  S    -0.939377  3.260464 -0.306709
  S    -0.631628  7.025548  0.230452
  S    -1.405363  3.664575  3.793689
  S    -1.143326  6.962032  4.325084
