16  
    
  C    -1.794966  2.414994  1.934521
  C    -1.840070  6.447608  2.188967
  C    -3.044300  2.036466  1.383636
  C    -2.870944  5.596271  1.632212
  N    -0.761344  2.444214  1.084825
  N    -1.002239  6.842419  1.250637
  N    -3.039125  1.998878  0.061410
  N    -2.693267  5.181935  0.426854
  N    -3.380648  2.120768  3.934900
  N    -3.526676  6.066753  4.078415
  S    -4.271171  1.871216  2.562231
  S    -4.175203  5.468504  2.669828
  S    -1.426973  2.189884 -0.389605
  S    -1.255650  5.868960 -0.099051
  S    -1.804001  2.598271  3.710600
  S    -2.168437  7.003685  3.794487
