16  
    
  C    -5.059832  1.156696  1.801203
  C    -4.994243  4.854850  1.534800
  C    -6.224580  0.633807  1.150436
  C    -6.134244  4.283028  0.814298
  N    -4.026904  1.394321  0.963834
  N    -3.937583  5.068239  0.769036
  N    -6.046806  0.266392 -0.112006
  N    -5.911416  4.032717 -0.471099
  N    -6.898167  0.931631  3.631935
  N    -6.851187  4.605639  3.300839
  S    -7.573017  0.220670  2.272414
  S    -7.472119  3.968317  1.885072
  S    -4.424047  0.680537 -0.501328
  S    -4.334666  4.566621 -0.771904
  S    -5.325605  1.433501  3.451621
  S    -5.292666  5.271045  3.196288
