16  
    
  C    -2.422562  2.257340  1.979832
  C    -2.529474  5.640559  2.078689
  C    -3.702516  1.938224  1.461839
  C    -3.746886  5.322891  1.333902
  N    -1.405909  1.993904  1.146059
  N    -1.430863  5.801739  1.402794
  N    -3.713530  1.610142  0.175717
  N    -3.513200  5.122139  0.036483
  N    -4.175988  2.218512  3.956823
  N    -4.395219  5.602395  3.881093
  S    -5.063269  2.096897  2.531935
  S    -5.071509  5.322404  2.378885
  S    -2.165096  1.585578 -0.304329
  S    -1.905715  5.384706 -0.189493
  S    -2.482905  2.321870  3.708638
  S    -2.764361  6.004257  3.812733
