16  
    
  C    -0.326312  3.292459  2.767655
  C    -0.300630  7.070892  2.509904
  C    -1.481448  2.758839  2.079290
  C    -1.486501  6.321084  1.951691
  N     0.709188  3.496639  1.913797
  N     0.691833  7.178903  1.601311
  N    -1.214292  2.289565  0.860855
  N    -1.331195  6.018549  0.648327
  N    -2.267912  3.048666  4.465199
  N    -2.158038  7.009070  4.378052
  S    -2.810962  2.308349  3.098499
  S    -2.775862  6.155527  3.097005
  S     0.271075  2.894139  0.450455
  S     0.249941  6.412507  0.201049
  S    -0.741646  3.683908  4.386052
  S    -0.566582  7.495389  4.187713
