16  
    
  C    -1.515249  3.022607  2.006304
  C    -1.058993  6.838902  2.322274
  C    -2.570644  2.205354  1.371128
  C    -2.320560  6.464657  1.753826
  N    -0.446249  3.229282  1.224507
  N    -0.183123  7.123920  1.337502
  N    -2.448275  2.086988  0.052356
  N    -2.311179  6.348551  0.419803
  N    -3.325393  2.497264  3.838979
  N    -2.691891  6.875665  4.288208
  S    -3.870856  1.738918  2.436672
  S    -3.572053  6.590434  2.937966
  S    -0.931733  2.714961 -0.304612
  S    -0.774768  6.653884 -0.130853
  S    -1.909202  3.346660  3.627881
  S    -1.107424  7.127776  4.025581
