16  
    
  C    -1.094374  3.149374  2.444418
  C    -0.720654  6.833629  2.251859
  C    -2.358472  2.758278  1.779405
  C    -2.005595  6.541117  1.665546
  N    -0.056780  3.054145  1.594143
  N     0.276484  6.817412  1.371248
  N    -2.307341  2.471633  0.471960
  N    -1.965579  6.273399  0.361801
  N    -2.946121  3.162896  4.196078
  N    -2.339219  6.565603  4.287138
  S    -3.769907  3.047989  2.784648
  S    -3.219428  6.393469  2.909245
  S    -0.692642  2.671262  0.077983
  S    -0.443181  6.623179 -0.121429
  S    -1.306284  3.272340  4.115954
  S    -0.749431  6.910889  4.056905
