16  
    
  C     2.155238  4.415179  3.017367
  C     2.043075  8.126608  3.151417
  C     0.949087  3.983516  2.382463
  C     0.857280  7.562265  2.489154
  N     3.146772  4.710804  2.221601
  N     3.131346  8.213032  2.388264
  N     1.119069  3.593597  1.146753
  N     1.087112  7.121963  1.251156
  N     0.243218  4.474493  4.830660
  N     0.047519  8.241751  4.828783
  S    -0.423343  3.964621  3.365315
  S    -0.572082  7.527593  3.445319
  S     2.738498  4.011580  0.727650
  S     2.677869  7.536179  0.937571
  S     1.892857  4.790619  4.706316
  S     1.714040  8.453194  4.862689
