16  
    
  C    -5.290922  1.098306  1.389168
  C    -5.385794  4.629099  1.610752
  C    -6.492244  0.574749  0.818387
  C    -6.687120  4.246566  1.084407
  N    -4.274804  1.206551  0.558643
  N    -4.497839  4.741788  0.645637
  N    -6.390948  0.433917 -0.494425
  N    -6.718402  4.038881 -0.214785
  N    -7.109686  0.925165  3.287039
  N    -6.978633  4.293734  3.633285
  S    -7.895332  0.506093  1.890795
  S    -7.919234  4.250739  2.261957
  S    -4.899237  0.899471 -0.954396
  S    -5.206204  4.429746 -0.821552
  S    -5.487092  1.376113  3.081816
  S    -5.396923  4.845239  3.369606
