16  
    
  C     1.387591  4.565115  3.320507
  C     1.462175  8.039161  3.092160
  C     0.081847  4.182987  2.936186
  C     0.152673  7.846048  2.424129
  N     2.258061  4.723137  2.353812
  N     2.545392  7.944871  2.319268
  N    -0.003698  3.917020  1.647015
  N     0.268221  7.703622  1.095108
  N    -0.084838  4.498875  5.450905
  N    -0.387176  8.004619  4.908205
  S    -1.134764  4.118900  4.162251
  S    -1.238084  7.864840  3.486965
  S     1.500463  4.305215  0.927804
  S     1.946732  7.672690  0.845609
  S     1.508481  4.674205  5.042120
  S     1.277080  8.116459  4.821322
