16  
    
  C    -1.744426  2.376858  1.986057
  C    -1.689327  6.242433  2.140839
  C    -2.916033  1.994494  1.284994
  C    -2.931275  5.835803  1.440994
  N    -0.670045  2.509418  1.209667
  N    -0.653438  6.241337  1.305314
  N    -2.788197  1.825373 -0.032808
  N    -2.780259  5.557046  0.095881
  N    -3.583654  2.002696  3.740361
  N    -3.600067  6.133415  3.923864
  S    -4.394675  1.954929  2.320886
  S    -4.364434  5.634516  2.492459
  S    -1.203091  2.120024 -0.365145
  S    -1.230336  5.968735 -0.213547
  S    -1.979248  2.367758  3.673203
  S    -1.989541  6.561561  3.855916
