16  
    
  C    -3.116293  2.187391  1.713368
  C    -2.958573  5.897628  2.010803
  C    -4.164280  1.498068  1.026349
  C    -4.234262  5.501433  1.494456
  N    -2.048859  2.494776  0.962452
  N    -2.052230  6.083786  1.035601
  N    -4.025724  1.539742 -0.288963
  N    -4.281716  5.263444  0.202007
  N    -4.926371  1.606414  3.503457
  N    -4.551263  5.554462  4.005040
  S    -5.515953  1.038673  2.036451
  S    -5.516949  5.295285  2.607793
  S    -2.462770  2.100743 -0.596286
  S    -2.814947  5.762124 -0.381367
  S    -3.351741  2.288530  3.473975
  S    -3.004628  6.046662  3.691243
