16  
    
  C     2.344640  4.876697  3.379885
  C     2.453301  8.669390  3.490039
  C     1.252466  4.199770  2.671554
  C     1.202012  8.330611  2.868907
  N     3.357380  5.158214  2.545111
  N     3.512075  8.715633  2.641091
  N     1.319306  4.235604  1.328336
  N     1.257941  8.246700  1.524779
  N     0.613324  4.238865  5.161204
  N     0.790133  8.718003  5.368017
  S    -0.136638  3.917787  3.724110
  S    -0.075764  8.083634  4.137498
  S     2.898953  4.698699  1.028724
  S     2.849474  8.637923  1.169187
  S     2.189541  4.728168  5.128114
  S     2.419986  8.970782  5.179046
