16  
    
  C     0.573784  3.709975  2.956517
  C     0.601867  7.542532  2.842863
  C    -0.805074  3.545263  2.429500
  C    -0.583312  7.112302  2.044179
  N     1.537035  3.859295  2.039325
  N     1.747361  7.652294  2.187567
  N    -0.777214  3.366681  1.105251
  N    -0.255644  6.856764  0.780803
  N    -1.118439  3.658716  4.938545
  N    -1.373934  7.269575  4.529957
  S    -2.015491  3.288732  3.603809
  S    -2.030318  6.945540  2.994185
  S     0.821384  3.455363  0.555263
  S     1.346199  7.260387  0.649458
  S     0.501159  4.018671  4.664297
  S     0.279168  7.699882  4.552067
