16  
    
  C     0.509200  3.730367  2.919306
  C     0.479090  7.531771  2.904775
  C    -0.791622  3.441540  2.404038
  C    -0.702109  7.159496  2.237319
  N     1.503947  3.867809  2.013005
  N     1.556882  7.585008  2.158902
  N    -0.861275  3.732412  1.088987
  N    -0.527141  6.861094  0.978865
  N    -1.071007  3.409432  4.943845
  N    -1.320131  7.335186  4.637477
  S    -2.089049  3.337329  3.572145
  S    -2.095935  7.053669  3.168269
  S     0.694512  3.865701  0.551053
  S     1.084924  7.199128  0.596266
  S     0.508194  3.474647  4.700130
  S     0.254747  7.818928  4.603502
