16  
    
  C     2.202759  4.365691  2.936012
  C     2.111346  8.589040  3.059001
  C     0.934318  4.125837  2.312614
  C     0.982531  7.873142  2.524626
  N     3.213419  4.665274  2.098025
  N     3.142483  8.711404  2.263791
  N     1.021690  3.959992  0.963775
  N     1.237391  7.334306  1.357927
  N     0.311145  4.364567  4.855523
  N     0.379191  8.471387  4.953508
  S    -0.372367  3.811704  3.407088
  S    -0.381432  7.870487  3.590056
  S     2.582026  4.223652  0.626772
  S     2.720290  7.925751  0.798511
  S     1.988173  4.651566  4.684165
  S     1.941782  9.023946  4.734250
