16  
    
  C    -1.866575  2.383680  2.512498
  C    -1.725732  5.792293  2.402292
  C    -3.176616  2.237586  1.837739
  C    -2.904676  5.540128  1.591260
  N    -0.820366  2.578302  1.701961
  N    -0.625621  5.938096  1.638035
  N    -3.031346  2.112139  0.531416
  N    -2.732535  5.714810  0.286903
  N    -3.662127  2.196787  4.363245
  N    -3.624104  5.577160  4.079931
  S    -4.484463  1.969136  2.913148
  S    -4.288954  5.334002  2.587643
  S    -1.399958  2.457204  0.168851
  S    -1.078161  5.879532  0.008721
  S    -2.023166  2.489642  4.264014
  S    -2.011595  5.924372  4.107935
