16  
    
  C    -0.053224  3.660424  2.534737
  C     0.278574  7.456291  2.682402
  C    -1.233809  3.007096  1.905301
  C    -0.937116  7.058625  2.044645
  N     0.961604  3.790081  1.705544
  N     1.305616  7.696157  1.888435
  N    -0.970975  2.554712  0.711521
  N    -0.781934  6.907870  0.735206
  N    -1.747683  3.486763  4.448250
  N    -1.400186  7.240877  4.567714
  S    -2.487652  2.728788  3.066457
  S    -2.238775  6.899061  3.134866
  S     0.533878  3.202193  0.230106
  S     0.875241  7.239328  0.414959
  S    -0.227916  4.074657  4.182476
  S     0.199052  7.579068  4.401955
