16  
    
  C     2.184437  4.546858  2.997091
  C     1.933143  8.161240  3.090692
  C     1.031820  3.958829  2.375102
  C     0.802141  7.509077  2.509597
  N     3.351384  4.501903  2.319488
  N     3.067437  8.266648  2.375907
  N     1.244098  3.670834  1.101769
  N     1.051886  6.991758  1.302044
  N     0.215922  4.352373  4.774325
  N     0.108000  8.194612  4.965257
  S    -0.414562  3.967316  3.259598
  S    -0.618783  7.628641  3.530011
  S     2.873345  4.057926  0.759346
  S     2.691684  7.474773  0.976019
  S     1.869706  4.831414  4.729973
  S     1.707115  8.724032  4.729915
