16  
    
  C     3.121790  4.883102  3.412672
  C     2.946625  9.029990  3.780113
  C     1.926093  4.688119  2.691093
  C     1.648507  8.596693  3.314029
  N     4.163317  5.150220  2.633658
  N     3.986317  8.974506  2.970241
  N     2.056307  4.603505  1.385054
  N     1.785928  8.168681  2.023486
  N     1.202275  5.017032  5.132038
  N     1.482421  9.123907  5.859726
  S     0.488835  4.673624  3.656007
  S     0.453058  8.763444  4.572304
  S     3.618205  4.871546  1.086897
  S     3.343216  8.525717  1.526959
  S     2.848891  5.272264  5.049681
  S     3.109241  9.304868  5.418432
