16  
    
  C     2.204853  4.419194  2.979827
  C     2.119392  8.601853  3.087204
  C     0.998958  4.027496  2.320125
  C     0.999175  7.856549  2.557701
  N     3.192781  4.615695  2.116535
  N     3.116083  8.683631  2.218734
  N     1.063406  3.894900  0.997209
  N     1.257987  7.282867  1.375724
  N     0.309106  4.311992  4.844051
  N     0.345487  8.474528  4.974994
  S    -0.380742  3.841640  3.402247
  S    -0.378659  7.870777  3.560231
  S     2.621460  4.204249  0.650655
  S     2.654149  7.877178  0.806327
  S     1.992711  4.611565  4.628151
  S     1.908938  9.048208  4.747472
