16  
    
  C    -4.279068  1.637728  1.951481
  C    -4.581213  5.256996  1.685941
  C    -5.383756  0.959626  1.371272
  C    -5.818929  4.721841  1.115873
  N    -3.168764  1.754962  1.237134
  N    -3.594479  5.347418  0.819482
  N    -5.185818  0.682420  0.093845
  N    -5.720346  4.534198 -0.195473
  N    -6.244844  1.602928  3.787648
  N    -6.277595  5.221454  3.692026
  S    -6.835433  0.990466  2.345061
  S    -7.048424  4.658207  2.346682
  S    -3.599762  1.125876 -0.310399
  S    -4.114339  4.842253 -0.664802
  S    -4.638199  1.958591  3.620574
  S    -4.658214  5.489080  3.412398
