16  
    
  C     2.271617  4.549493  3.235553
  C     2.286198  8.951666  3.504602
  C     1.013441  4.314454  2.566650
  C     1.055133  8.497886  2.862098
  N     3.232726  4.963005  2.423035
  N     3.266271  9.015811  2.647467
  N     1.024736  4.460490  1.244734
  N     1.136050  8.200606  1.587365
  N     0.604141  4.246977  5.185892
  N     0.446925  8.529312  5.318719
  S    -0.225271  3.863516  3.696148
  S    -0.311593  8.283246  3.845411
  S     2.597157  4.889172  0.895751
  S     2.664343  8.599970  1.073231
  S     2.241190  4.767459  4.932195
  S     2.029315  9.070434  5.240024
