16  
    
  C    -4.452054  1.217090  1.888103
  C    -4.635144  4.748146  1.653473
  C    -5.585373  0.686759  1.186436
  C    -5.821850  4.392952  0.856235
  N    -3.470822  1.530009  1.035290
  N    -3.576629  5.086566  0.898333
  N    -5.651660  0.746178 -0.128877
  N    -5.678402  4.475790 -0.459861
  N    -6.148932  0.664463  3.766938
  N    -6.608085  4.079893  3.249386
  S    -6.901162  0.377433  2.239045
  S    -7.168734  3.796375  1.716414
  S    -4.064313  1.333918 -0.483077
  S    -4.185529  5.018073 -0.640904
  S    -4.511533  1.120352  3.608661
  S    -4.973963  4.483910  3.330169
