16  
    
  C    -5.242750  0.988896  1.412641
  C    -5.432872  4.619688  1.605863
  C    -6.481870  0.543081  0.781637
  C    -6.728631  4.319246  1.022346
  N    -4.221625  1.303725  0.572060
  N    -4.455778  4.774752  0.695978
  N    -6.438686  0.353296 -0.535783
  N    -6.741283  4.056579 -0.302814
  N    -7.110093  0.921793  3.316397
  N    -6.975720  4.216960  3.574737
  S    -7.861454  0.424447  1.848726
  S    -7.985162  4.272562  2.238046
  S    -4.913638  0.940655 -0.966149
  S    -5.209715  4.467456 -0.761939
  S    -5.515300  1.359529  3.048343
  S    -5.407161  4.890563  3.370506
