16  
    
  C     0.273007  3.578547  2.881272
  C     0.391529  7.546734  2.794524
  C    -0.905493  3.301425  2.127667
  C    -0.929751  7.484179  2.242545
  N     1.288657  3.958406  2.106076
  N     1.325034  7.654900  1.869600
  N    -0.734008  3.095757  0.810875
  N    -1.018595  7.564818  0.929677
  N    -1.546270  3.063095  4.662363
  N    -1.316288  7.498326  4.745222
  S    -2.215161  2.795447  3.180268
  S    -2.218734  7.408339  3.371948
  S     0.798316  3.679020  0.558882
  S     0.577626  7.546894  0.342325
  S     0.116480  3.481307  4.645124
  S     0.361925  7.589119  4.543028
