16  
    
  C     3.102151  5.017788  3.448858
  C     3.150091  8.680045  3.735862
  C     1.816201  4.785329  2.827771
  C     1.809603  8.520286  3.242548
  N     4.129690  5.122950  2.615861
  N     4.157580  8.631997  2.811991
  N     1.949643  4.340089  1.561520
  N     1.836432  8.259367  1.904133
  N     1.394608  5.009503  5.397782
  N     1.800595  9.386950  5.781234
  S     0.528117  4.590837  4.055095
  S     0.710302  9.063929  4.546602
  S     3.549111  4.720883  1.059422
  S     3.445987  8.201737  1.417964
  S     3.061038  5.310387  5.176579
  S     3.428316  9.345534  5.332981
