16  
    
  C    -2.431789  2.256892  1.977467
  C    -2.546370  5.646446  2.084103
  C    -3.723248  1.945970  1.462266
  C    -3.740766  5.333752  1.331505
  N    -1.411886  2.003090  1.136873
  N    -1.428706  5.795815  1.415103
  N    -3.717782  1.605638  0.178325
  N    -3.498389  5.112606  0.040887
  N    -4.182259  2.222293  3.960595
  N    -4.389165  5.624721  3.874477
  S    -5.061584  2.094905  2.530177
  S    -5.073360  5.322139  2.373385
  S    -2.158053  1.591787 -0.304406
  S    -1.903503  5.387250 -0.183094
  S    -2.494807  2.319086  3.707159
  S    -2.760345  6.006034  3.809699
