16  
    
  C    -3.735042  1.902137  1.926394
  C    -3.566143  5.436653  1.944430
  C    -4.717608  1.080104  1.308679
  C    -4.774136  4.914324  1.377849
  N    -2.783349  2.409417  1.142590
  N    -2.556366  5.438879  1.075833
  N    -4.351780  0.786386  0.071032
  N    -4.706778  4.480268  0.122944
  N    -5.582082  1.381244  3.779146
  N    -5.207659  5.291792  3.957545
  S    -6.002181  0.526897  2.360182
  S    -6.063598  4.922997  2.570070
  S    -2.985472  1.677556 -0.347946
  S    -3.189150  4.846397 -0.396797
  S    -4.249591  2.356614  3.550637
  S    -3.544970  5.815704  3.688547
