16  
    
  C    -1.102627  3.159176  2.384141
  C    -0.621241  6.661986  2.298972
  C    -2.364754  2.766754  1.783126
  C    -1.918256  6.473929  1.717216
  N    -0.023282  3.027073  1.627628
  N     0.295659  6.771590  1.348770
  N    -2.243845  2.443629  0.507325
  N    -1.947042  6.262920  0.399635
  N    -2.960297  3.166668  4.248104
  N    -2.337492  6.593326  4.265429
  S    -3.761944  3.052208  2.770063
  S    -3.193771  6.353067  2.894109
  S    -0.657263  2.686033  0.105719
  S    -0.369715  6.611921 -0.172430
  S    -1.278978  3.294582  4.134976
  S    -0.775641  6.907246  4.055873
