16  
    
  C    -5.530792  0.924188  1.348359
  C    -4.992977  4.901058  1.373093
  C    -6.697957  0.431916  0.708001
  C    -6.153481  4.171815  0.822547
  N    -4.550509  1.250535  0.506110
  N    -4.227129  5.393568  0.414440
  N    -6.504038  0.323733 -0.590769
  N    -6.115300  4.076622 -0.486682
  N    -7.200242  0.459031  3.244681
  N    -6.640086  4.367770  3.269381
  S    -8.020774  0.126049  1.776917
  S    -7.430927  3.862487  1.912928
  S    -5.006962  0.859155 -0.995642
  S    -4.828371  4.945811 -1.071907
  S    -5.695457  1.221530  3.113173
  S    -5.297756  5.333798  2.988867
