16  
    
  C     2.997873  5.404874  3.944204
  C     2.388497  8.587279  3.225911
  C     1.741259  5.022051  3.362677
  C     1.205644  8.074961  2.575434
  N     3.979558  5.501501  3.015278
  N     3.406746  8.769256  2.448730
  N     1.878723  4.482703  2.146668
  N     1.418243  7.726148  1.303252
  N     1.142182  5.648408  5.714977
  N     0.703446  8.260856  5.147832
  S     0.403821  4.843252  4.466666
  S    -0.184150  8.042302  3.718274
  S     3.420918  4.777428  1.606084
  S     3.044849  8.182830  0.976095
  S     2.751723  5.845308  5.648399
  S     2.340516  8.801422  4.875697
