16  
    
  C     2.941473  5.261342  3.640222
  C     2.869064  8.702439  3.468964
  C     1.690146  5.086454  2.890467
  C     1.750736  8.334604  2.672776
  N     3.995362  5.335842  2.858116
  N     4.016253  8.955653  2.781293
  N     1.850748  4.776881  1.610675
  N     2.010044  8.200727  1.328968
  N     1.146027  4.728796  5.343430
  N     1.023331  8.720799  5.214225
  S     0.356870  4.876102  3.922412
  S     0.372973  8.107603  3.797256
  S     3.465239  5.130921  1.324598
  S     3.690888  8.498642  1.289453
  S     2.703750  5.299672  5.363319
  S     2.682829  8.836928  5.150383
