16  
    
  C     3.075452  4.934514  3.389344
  C     3.025253  9.024445  3.768113
  C     1.843451  4.686389  2.660120
  C     1.711498  8.701697  3.252011
  N     4.163041  5.094010  2.641337
  N     3.996214  8.931344  2.888382
  N     2.005052  4.613310  1.361582
  N     1.745340  8.230228  2.031184
  N     1.254641  5.001433  5.177546
  N     1.534881  9.261639  5.768298
  S     0.486406  4.648145  3.776688
  S     0.505502  8.764523  4.610538
  S     3.673076  4.871526  1.063664
  S     3.310493  8.375730  1.500841
  S     2.880702  5.267867  5.078290
  S     3.118354  9.309544  5.441251
