16  
    
  C    -3.615625  2.027812  1.741757
  C    -4.019111  5.295428  1.672578
  C    -4.785457  1.525247  1.108255
  C    -5.165507  4.623214  1.036272
  N    -2.675499  2.300810  0.868706
  N    -2.964692  5.485334  0.880076
  N    -4.734587  1.383217 -0.226730
  N    -5.008521  4.407656 -0.262199
  N    -5.136940  1.226072  3.688806
  N    -5.737971  5.087350  3.551018
  S    -6.029136  1.101155  2.254429
  S    -6.397172  4.392708  2.190366
  S    -3.221796  1.884432 -0.618699
  S    -3.507177  5.001952 -0.644380
  S    -3.700587  2.150821  3.474242
  S    -4.112657  5.502416  3.337847
