16  
    
  C     2.976649  5.152946  3.207215
  C     2.887243  9.218215  3.792763
  C     1.797758  4.591547  2.606025
  C     1.744312  8.659965  3.036995
  N     4.025939  5.145953  2.398447
  N     3.956541  9.368378  3.046273
  N     1.859181  4.386995  1.282938
  N     1.902941  8.556351  1.733064
  N     1.145332  4.976369  5.089637
  N     1.130178  8.783817  5.680515
  S     0.455277  4.426915  3.665276
  S     0.442379  8.295616  4.224863
  S     3.456038  4.790873  0.873812
  S     3.587494  8.872413  1.528605
  S     2.746115  5.386450  4.975261
  S     2.683162  9.453444  5.467348
