16  
    
  C    -0.019404  3.753463  2.427713
  C     0.441708  7.366222  2.836537
  C    -1.207757  3.115394  1.826747
  C    -0.752690  6.856685  2.176647
  N     0.940957  3.793411  1.531517
  N     1.421233  7.671052  1.972874
  N    -1.134313  2.815240  0.532373
  N    -0.683641  6.687322  0.860800
  N    -1.763309  3.489989  4.336626
  N    -1.455662  7.320744  4.595340
  S    -2.506357  3.012993  2.933988
  S    -2.131408  6.647369  3.249632
  S     0.396763  3.227736  0.076829
  S     0.816479  7.152903  0.518172
  S    -0.118715  4.009542  4.156046
  S     0.145031  7.896610  4.457711
