16  
    
  C    -1.222212  3.354381  2.158086
  C    -1.090809  6.870148  2.531171
  C    -2.464879  2.717027  1.665770
  C    -2.387994  6.771458  1.894889
  N    -0.268100  3.473828  1.256118
  N    -0.013926  6.945170  1.723530
  N    -2.455592  2.589290  0.344877
  N    -2.303449  6.674817  0.548353
  N    -2.711863  2.935833  4.253094
  N    -2.818865  6.810711  4.484971
  S    -3.662728  2.617031  2.907100
  S    -3.657349  6.544469  3.133719
  S    -0.959937  3.058268 -0.199033
  S    -0.717381  6.992609  0.189175
  S    -1.121526  3.309964  3.878578
  S    -1.206662  7.129096  4.322157
