16  
    
  C     1.244025  4.305292  3.098487
  C     1.630789  8.256016  3.009797
  C    -0.036596  4.107622  2.429156
  C     0.378223  8.128401  2.341402
  N     2.258979  4.624305  2.254635
  N     2.690962  8.161406  2.219083
  N     0.025370  3.958929  1.103295
  N     0.538775  7.958272  1.035120
  N    -0.585575  4.170869  4.901588
  N    -0.067955  8.317256  4.865672
  S    -1.344819  3.678504  3.546301
  S    -0.929618  8.083212  3.493310
  S     1.551433  4.430258  0.730214
  S     2.137956  7.875314  0.635002
  S     1.058486  4.517812  4.885733
  S     1.561616  8.524893  4.700498
