16  
    
  C     1.819305  4.275406  3.115487
  C     1.952148  8.002842  3.098159
  C     0.528196  3.967267  2.511402
  C     0.769376  7.526344  2.449148
  N     2.860488  4.221358  2.323263
  N     2.929857  8.330163  2.228611
  N     0.623738  3.859762  1.222773
  N     0.817221  7.493084  1.128709
  N     0.204372  4.302024  5.035099
  N     0.176221  7.496397  4.958357
  S    -0.674094  4.024185  3.696527
  S    -0.536604  7.164725  3.494637
  S     2.263213  4.022172  0.778022
  S     2.351660  7.919792  0.715266
  S     1.845004  4.392297  4.846415
  S     1.788496  7.905510  4.881583
