16  
    
  C    -6.031082  0.865048  1.477769
  C    -6.150768  4.459955  1.750683
  C    -7.154542  0.157286  0.951401
  C    -7.266377  4.059376  1.027644
  N    -5.148960  1.269164  0.590216
  N    -5.037913  4.631832  1.065054
  N    -7.092267  0.096281 -0.361303
  N    -7.068111  4.036070 -0.275977
  N    -7.467245  0.208241  3.483057
  N    -8.038750  4.183987  3.519788
  S    -8.306708 -0.235335  2.104259
  S    -8.730767  3.819881  2.044436
  S    -5.679753  0.806506 -0.875806
  S    -5.459854  4.446148 -0.532541
  S    -6.047692  1.062813  3.229130
  S    -6.446661  4.531697  3.415911
