16  
    
  C    -2.459466  2.201997  1.981888
  C    -2.570222  5.713840  2.135547
  C    -3.792387  1.983644  1.426271
  C    -3.694806  5.370557  1.353084
  N    -1.455748  2.059963  1.111292
  N    -1.434494  5.752054  1.414360
  N    -3.743059  1.581263  0.164976
  N    -3.466454  5.080583  0.072232
  N    -4.189491  2.237195  3.954751
  N    -4.377361  5.715056  3.826414
  S    -5.060376  2.086805  2.533359
  S    -5.102466  5.313751  2.368703
  S    -2.127760  1.626677 -0.305364
  S    -1.876847  5.401375 -0.161357
  S    -2.546281  2.316038  3.714885
  S    -2.750937  6.004751  3.788806
