16  
    
  C     2.988068  5.151206  3.260123
  C     3.059894  9.149961  3.854688
  C     1.826101  4.681058  2.590170
  C     1.802105  8.638309  3.281207
  N     4.093537  5.209804  2.534132
  N     4.091972  9.159245  3.003165
  N     1.970275  4.598990  1.253097
  N     1.834546  8.349053  2.027485
  N     1.134839  5.013872  5.071136
  N     1.183263  8.894922  5.775795
  S     0.434219  4.590099  3.646958
  S     0.455606  8.515594  4.312541
  S     3.662922  4.754968  1.025032
  S     3.360374  8.796544  1.508646
  S     2.766186  5.274865  4.968427
  S     2.824261  9.374435  5.593619
