16  
    
  C     3.114063  5.221061  3.414165
  C     3.220113  8.964500  3.598234
  C     1.991912  4.491050  2.770398
  C     1.999044  8.651201  2.899134
  N     4.185207  5.341266  2.649065
  N     4.350611  9.126980  2.943786
  N     2.139198  4.394055  1.452050
  N     2.203123  8.600987  1.607932
  N     1.324659  4.832197  5.159514
  N     1.470561  8.962987  5.417935
  S     0.656821  4.226235  3.720044
  S     0.656054  8.547901  4.062479
  S     3.699702  4.919095  1.098293
  S     3.886723  8.945237  1.357430
  S     2.883625  5.368773  5.109379
  S     3.051117  9.266543  5.316249
