16  
    
  C    -1.753054  2.396440  1.969148
  C    -1.822695  6.484848  2.164614
  C    -3.022299  2.053576  1.342509
  C    -2.838551  5.662163  1.646860
  N    -0.777955  2.355332  1.087866
  N    -0.932646  6.835917  1.257641
  N    -3.031115  1.991556 -0.003408
  N    -2.689776  5.193158  0.383140
  N    -3.377681  2.177497  3.899234
  N    -3.478651  6.017935  4.023492
  S    -4.249921  1.852403  2.544623
  S    -4.207577  5.496320  2.636261
  S    -1.438437  2.233001 -0.408912
  S    -1.232420  5.879054 -0.058125
  S    -1.796045  2.578121  3.675833
  S    -2.173590  7.003429  3.731792
