16  
    
  C     3.139384  5.141633  3.397632
  C     3.300825  9.188657  3.754768
  C     1.932128  4.703908  2.719118
  C     2.144957  8.856642  2.976822
  N     4.275169  5.178780  2.685735
  N     4.406570  9.412661  3.016150
  N     2.175864  4.471972  1.436729
  N     2.447990  8.687673  1.644411
  N     1.354428  4.962881  5.212002
  N     1.454118  8.754099  5.360672
  S     0.616225  4.489310  3.821327
  S     0.741768  8.734689  3.910925
  S     3.744390  4.821983  1.142570
  S     4.034044  8.951225  1.503229
  S     3.020833  5.261478  5.101102
  S     2.988784  9.281765  5.474242
