16  
    
  C     1.864230  4.357106  3.091437
  C     1.981508  7.998403  3.136763
  C     0.628668  3.996168  2.464111
  C     0.794402  7.582342  2.442580
  N     2.906692  4.144423  2.261700
  N     2.953000  8.251625  2.282008
  N     0.680081  3.837133  1.099412
  N     0.894638  7.516950  1.120361
  N     0.222558  4.285558  5.118159
  N     0.148134  7.510118  4.964132
  S    -0.698000  3.997762  3.660527
  S    -0.517173  7.211641  3.468238
  S     2.254186  3.999580  0.776530
  S     2.418701  7.872308  0.715229
  S     1.873832  4.508475  4.836712
  S     1.781130  7.977677  4.882180
