16  
    
  C    -0.007859  3.342008  2.474012
  C    -0.045213  7.122222  2.684711
  C    -1.093777  2.738928  1.814716
  C    -1.242333  6.747482  2.041340
  N     1.069554  3.599056  1.786817
  N     0.965054  7.433415  1.901254
  N    -0.977327  2.731220  0.492783
  N    -1.093341  6.557990  0.740733
  N    -1.846509  2.962162  4.294321
  N    -1.743736  6.595823  4.451310
  S    -2.405225  2.298988  2.882651
  S    -2.566699  6.445948  3.025704
  S     0.595256  3.250788  0.207328
  S     0.405688  7.192247  0.344566
  S    -0.217165  3.514792  4.186117
  S    -0.135505  7.130067  4.415083
