16  
    
  C    -4.647305  0.734578  1.435003
  C    -4.746452  4.513991  1.870475
  C    -5.911757  0.666936  0.721385
  C    -5.999470  4.245853  1.164187
  N    -3.582865  1.003683  0.644455
  N    -3.697033  4.757867  1.082265
  N    -5.812307  0.692506 -0.598327
  N    -5.879552  4.248000 -0.175935
  N    -6.519960  0.858463  3.146867
  N    -6.596689  4.549340  3.674306
  S    -7.329646  0.636031  1.777675
  S    -7.338437  4.191265  2.229020
  S    -4.226316  0.996749 -0.877303
  S    -4.273935  4.533113 -0.437616
  S    -4.875487  1.103733  3.106477
  S    -4.902146  4.789582  3.591601
