16  
    
  C    -1.919132  2.447398  2.593287
  C    -1.727626  5.986495  2.320317
  C    -3.111182  2.061355  1.915820
  C    -2.975808  5.592453  1.726029
  N    -0.830279  2.719280  1.819470
  N    -0.681316  6.119054  1.443510
  N    -2.884532  1.825211  0.622405
  N    -2.917207  5.487319  0.392452
  N    -3.750176  2.094780  4.407172
  N    -3.461971  5.683653  4.232340
  S    -4.425871  1.677678  2.947552
  S    -4.331392  5.473045  2.846148
  S    -1.295417  2.260781  0.314796
  S    -1.392622  6.025266 -0.108007
  S    -2.134424  2.466497  4.341785
  S    -1.848588  5.861492  4.036987
