16  
    
  C     3.159295  5.095384  3.501566
  C     3.367195  8.931995  3.690403
  C     1.927414  4.895671  2.840094
  C     2.073632  8.782147  3.031888
  N     4.229146  5.039932  2.712265
  N     4.389980  8.726177  2.919534
  N     1.988190  4.569352  1.552187
  N     2.184969  8.555427  1.691666
  N     1.359721  5.134669  5.402393
  N     1.730358  9.021479  5.704681
  S     0.598475  4.721521  4.018288
  S     0.832318  9.137822  4.308245
  S     3.636327  4.635253  1.154266
  S     3.832662  8.418857  1.418488
  S     2.998520  5.279120  5.185207
  S     3.421685  9.266673  5.367345
