16  
    
  C    -3.889686  1.516379  1.726328
  C    -4.054997  5.335118  1.916773
  C    -5.189150  1.332673  1.078262
  C    -5.271337  5.085721  1.123005
  N    -2.919992  1.552591  0.828175
  N    -2.987961  5.610902  1.165525
  N    -5.147942  1.079724 -0.240182
  N    -5.055449  5.204826 -0.184366
  N    -5.691473  1.562623  3.642176
  N    -5.882005  5.001288  3.712555
  S    -6.523743  1.368999  2.169431
  S    -6.570986  4.802963  2.193342
  S    -3.500530  1.250274 -0.655605
  S    -3.476465  5.698581 -0.403780
  S    -4.053391  1.676751  3.433576
  S    -4.236521  5.078334  3.630772
