16  
    
  C    -5.371444  1.073713  1.380772
  C    -5.503532  4.746235  1.593740
  C    -6.477040  0.453416  0.715553
  C    -6.741841  4.358596  1.041821
  N    -4.418257  1.347431  0.498761
  N    -4.504915  4.853694  0.738306
  N    -6.378022  0.423419 -0.614946
  N    -6.701028  4.279330 -0.275479
  N    -7.116365  0.902772  3.133665
  N    -7.076825  4.338459  3.560611
  S    -7.797943  0.240696  1.821793
  S    -8.025538  4.243298  2.187743
  S    -4.886776  0.968245 -1.004220
  S    -5.103062  4.518462 -0.746870
  S    -5.500731  1.296217  3.102206
  S    -5.535496  4.873843  3.260091
