16  
    
  C     2.917395  5.230225  3.725068
  C     2.844033  8.748569  3.270445
  C     1.597478  5.238407  3.149633
  C     1.567548  8.356569  2.742982
  N     3.916389  5.070650  2.888110
  N     3.791142  8.698001  2.327449
  N     1.597115  4.773297  1.911540
  N     1.511998  8.004450  1.465579
  N     1.362815  5.451392  5.670453
  N     1.084208  8.915790  5.118905
  S     0.347381  5.417364  4.367591
  S     0.198850  8.425232  3.791113
  S     3.192194  4.620077  1.445590
  S     3.068284  8.137779  0.846761
  S     3.029164  5.524332  5.393651
  S     2.726224  9.115365  4.996674
