16  
    
  C    -2.068252  2.459518  1.987745
  C    -2.084795  5.733663  2.220202
  C    -3.312165  1.947764  1.401904
  C    -3.398209  5.574862  1.534657
  N    -1.064706  2.510787  1.129683
  N    -1.049309  5.770922  1.363626
  N    -3.274921  1.765013  0.087381
  N    -3.317891  5.471124  0.211298
  N    -3.824262  2.358933  3.893561
  N    -3.854593  5.842986  4.068510
  S    -4.666208  1.911410  2.516147
  S    -4.718480  5.424323  2.676263
  S    -1.730012  2.077667 -0.369519
  S    -1.710571  5.758942 -0.114450
  S    -2.189584  2.537459  3.660418
  S    -2.202596  6.136366  3.876664
