16  
    
  C     2.219137  4.321388  3.045379
  C     1.983869  8.267105  3.122165
  C     1.065902  4.014395  2.269648
  C     0.847669  7.613255  2.588213
  N     3.381644  4.458300  2.362939
  N     3.068602  8.201721  2.345999
  N     1.346286  3.849412  0.969184
  N     1.047778  7.084097  1.408960
  N     0.244899  4.376648  4.683190
  N     0.134366  8.284737  4.893469
  S    -0.395233  3.915295  3.310558
  S    -0.556384  7.570850  3.561400
  S     2.947658  4.022974  0.839209
  S     2.559802  7.422178  0.921108
  S     1.826219  4.805055  4.703121
  S     1.630664  8.928735  4.736217
