16  
    
  C    -1.458528  2.621352  2.280846
  C    -1.363493  6.718712  2.158743
  C    -2.547924  1.963944  1.544477
  C    -2.647687  6.170798  1.642446
  N    -0.502776  3.001112  1.447517
  N    -0.305917  6.737801  1.362739
  N    -2.273007  1.675492  0.278322
  N    -2.547017  5.825943  0.380624
  N    -3.406763  2.465874  3.918035
  N    -2.951318  6.267945  4.153006
  S    -3.923296  1.720409  2.531448
  S    -3.908165  6.145055  2.816861
  S    -0.812853  2.344509 -0.039817
  S    -1.010773  6.251081 -0.072864
  S    -1.850988  3.019017  3.916299
  S    -1.418337  6.862973  3.872221
