16  
    
  C    -0.047779  3.350880  2.551230
  C    -0.023487  7.123897  2.663196
  C    -1.104772  2.591440  1.838602
  C    -1.215898  6.722043  2.013210
  N     0.993903  3.633547  1.755092
  N     0.951692  7.425153  1.812370
  N    -0.972044  2.696641  0.519953
  N    -1.083491  6.559426  0.710637
  N    -1.859591  2.959853  4.319086
  N    -1.769458  6.540932  4.470658
  S    -2.418417  2.299230  2.875348
  S    -2.564620  6.422482  3.015852
  S     0.590551  3.214782  0.223623
  S     0.380838  7.209055  0.305573
  S    -0.256299  3.521635  4.236254
  S    -0.171905  7.067918  4.408494
