16  
    
  C     0.763476  3.594685  2.799871
  C     0.537705  7.647765  2.699326
  C    -0.567139  3.391227  2.246945
  C    -0.638358  6.905773  2.209318
  N     1.638512  4.085820  1.888906
  N     1.500972  7.801537  1.807408
  N    -0.554004  3.309560  0.898590
  N    -0.486459  6.656713  0.926154
  N    -0.954288  3.537569  4.775487
  N    -0.968890  7.289653  4.807197
  S    -1.859288  3.237774  3.393240
  S    -1.782913  6.634915  3.491132
  S     0.951047  3.692904  0.430164
  S     0.951467  7.206416  0.336751
  S     0.652475  3.762869  4.546142
  S     0.459996  8.108568  4.388143
