16  
    
  C    -3.563689  1.598850  2.069059
  C    -3.245587  5.360537  2.071188
  C    -4.723810  1.132858  1.358878
  C    -4.550205  4.961009  1.525100
  N    -2.456077  1.765055  1.371309
  N    -2.238622  5.350338  1.218427
  N    -4.431250  0.770846  0.114650
  N    -4.521313  4.744286  0.219164
  N    -5.499891  1.432069  3.877347
  N    -5.048329  5.369950  3.990845
  S    -6.117829  1.012525  2.385565
  S    -5.866107  4.942234  2.636530
  S    -2.818146  1.214053 -0.177278
  S    -3.015803  4.983945 -0.260816
  S    -3.910274  1.925336  3.761609
  S    -3.398493  5.700279  3.716048
