16  
    
  C    -0.673929  3.199952  2.754941
  C    -1.358138  6.589364  2.602367
  C    -1.892359  2.632006  2.138226
  C    -2.414882  6.042075  1.824025
  N     0.340989  3.285015  1.919661
  N    -0.285942  6.832310  1.899089
  N    -1.746875  2.365632  0.853428
  N    -2.206944  5.927559  0.513931
  N    -2.429289  3.082331  4.581730
  N    -3.187732  6.084068  4.311435
  S    -3.299372  2.795510  3.233278
  S    -3.796671  5.613601  2.846407
  S    -0.153508  2.643896  0.483801
  S    -0.676809  6.610983  0.325569
  S    -0.817052  3.431568  4.451242
  S    -1.600129  6.659182  4.297325
