16  
    
  C    -3.176964  1.974724  1.859107
  C    -3.156173  5.796211  2.084071
  C    -4.293006  1.433270  1.124225
  C    -4.372697  5.266989  1.503976
  N    -2.050484  2.084618  1.148141
  N    -2.203482  6.019056  1.221524
  N    -4.082909  1.299014 -0.164280
  N    -4.321840  5.087556  0.184138
  N    -5.129394  1.732217  3.459641
  N    -4.819170  5.359088  4.017640
  S    -5.734911  1.137900  2.048725
  S    -5.642999  4.955760  2.652809
  S    -2.491320  1.604094 -0.374722
  S    -2.813863  5.737163 -0.263465
  S    -3.510615  2.072500  3.576199
  S    -3.233024  5.784297  3.799155
