16  
    
  C    -0.322298  3.484715  2.953064
  C    -0.867405  6.916701  2.710095
  C    -1.547630  2.976105  2.297596
  C    -1.926105  6.326340  1.908383
  N     0.619265  3.823517  2.057805
  N     0.278302  7.005420  2.004202
  N    -1.393391  2.660538  1.028567
  N    -1.619316  6.131130  0.608961
  N    -2.248347  3.288772  4.806442
  N    -2.836579  6.479807  4.347158
  S    -2.941040  2.888676  3.281073
  S    -3.407556  6.043452  2.859451
  S     0.138944  3.137356  0.601642
  S    -0.035604  6.637576  0.413931
  S    -0.609985  3.734176  4.641084
  S    -1.310990  7.013359  4.451947
