16  
    
  C     2.074969  4.621087  2.993732
  C     2.307837  8.598642  3.119522
  C     0.840827  4.279612  2.330621
  C     1.122406  8.117069  2.470375
  N     3.087807  4.956679  2.190031
  N     3.362768  8.620441  2.296237
  N     0.919183  4.078088  1.024350
  N     1.181369  7.779369  1.190406
  N     0.330107  4.379777  4.883249
  N     0.437811  8.413176  4.897263
  S    -0.474697  3.936342  3.450845
  S    -0.207538  7.767363  3.535378
  S     2.503321  4.514126  0.673269
  S     2.786346  8.177650  0.780778
  S     1.869442  4.915452  4.612486
  S     2.033619  8.876568  4.848233
