16  
    
  C    -5.538425  0.914895  1.469621
  C    -5.424170  4.915037  1.225290
  C    -6.745173  0.410306  0.827431
  C    -6.626087  4.276669  0.672926
  N    -4.494020  0.994424  0.657830
  N    -4.447236  5.147165  0.340204
  N    -6.654503  0.260709 -0.521485
  N    -6.592753  4.138346 -0.670332
  N    -7.345868  0.858398  3.234177
  N    -6.865730  4.325987  3.216276
  S    -8.098241  0.207116  1.937389
  S    -7.795678  3.929881  1.917652
  S    -5.060335  0.603584 -0.839896
  S    -5.080396  4.642043 -1.088237
  S    -5.718799  1.010786  3.189065
  S    -5.393138  5.027411  2.910002
