16  
    
  C    -6.140992  0.955332  1.449203
  C    -6.148136  4.468491  1.828696
  C    -7.269631  0.224285  0.881099
  C    -7.238903  3.996778  1.130850
  N    -5.297368  1.299512  0.527336
  N    -5.069311  4.679213  1.119128
  N    -7.301000  0.122074 -0.436533
  N    -7.108546  3.971661 -0.166148
  N    -7.564014  0.219345  3.400251
  N    -8.052510  4.051932  3.530980
  S    -8.332938 -0.400839  2.069095
  S    -8.627970  3.592177  2.042300
  S    -5.867897  0.840328 -0.974747
  S    -5.510056  4.386346 -0.461960
  S    -6.045670  0.957204  3.158864
  S    -6.431117  4.409601  3.548266
