16  
    
  C     3.125656  5.206732  3.406608
  C     3.193297  8.839830  3.715370
  C     1.908701  4.717653  2.845580
  C     1.818507  8.638369  3.327696
  N     4.136818  5.160906  2.541063
  N     4.169985  8.558998  2.857143
  N     1.882214  4.616195  1.511373
  N     1.722905  8.203241  2.064906
  N     1.378625  5.025915  5.264913
  N     1.707092  9.362179  5.728207
  S     0.600062  4.542425  3.889703
  S     0.644538  8.941711  4.529840
  S     3.484870  4.666214  1.128135
  S     3.318905  8.257111  1.449874
  S     3.004890  5.219852  5.172938
  S     3.311445  9.412768  5.334964
