16  
    
  C    -4.111359  1.400581  1.682742
  C    -4.150043  5.252412  1.913723
  C    -5.321272  1.183101  0.984290
  C    -5.384380  5.165652  1.224361
  N    -3.033999  1.231341  0.953846
  N    -3.049797  5.212814  1.169635
  N    -5.197438  1.150796 -0.356177
  N    -5.306667  5.094253 -0.113491
  N    -5.961889  1.546913  3.518508
  N    -5.895112  4.861189  3.845870
  S    -6.723560  1.322323  2.106209
  S    -6.694316  4.917338  2.403064
  S    -3.580480  1.134566 -0.650348
  S    -3.641782  5.194095 -0.423486
  S    -4.310811  1.674375  3.406951
  S    -4.278924  5.270009  3.701711
