16  
    
  C    -3.600870  1.828379  1.796847
  C    -3.953093  5.326818  1.740119
  C    -4.865760  1.436912  1.200066
  C    -5.062447  4.772568  1.053415
  N    -2.658229  2.268482  0.950069
  N    -2.918052  5.626827  0.975909
  N    -4.751973  1.354770 -0.118280
  N    -4.951495  4.656330 -0.278577
  N    -5.270457  1.262287  3.752133
  N    -5.873201  5.128415  3.464229
  S    -6.177835  1.176698  2.335755
  S    -6.415321  4.345246  2.116444
  S    -3.307878  1.939212 -0.581451
  S    -3.426635  5.218892 -0.624318
  S    -3.747607  2.028947  3.542443
  S    -4.205300  5.433372  3.502499
