16  
    
  C    -3.601138  1.733511  2.078699
  C    -3.333349  5.343862  2.059408
  C    -4.651965  1.031949  1.405728
  C    -4.590794  4.949667  1.523169
  N    -2.515102  1.869274  1.300424
  N    -2.320323  5.287884  1.169115
  N    -4.409290  0.810969  0.112851
  N    -4.587434  4.642168  0.243968
  N    -5.522318  1.470965  3.779509
  N    -5.029273  5.357192  3.972852
  S    -6.130146  0.917778  2.377159
  S    -5.909157  4.928910  2.640387
  S    -2.833441  1.286885 -0.172760
  S    -3.030037  4.951245 -0.312860
  S    -4.005056  1.953347  3.711717
  S    -3.415561  5.736563  3.800650
