16  
    
  C     1.895186  4.234293  3.306207
  C     1.835254  7.782335  3.055030
  C     0.609939  4.013630  2.629091
  C     0.596679  7.359671  2.386049
  N     2.836912  4.255743  2.417304
  N     2.786218  8.206265  2.226867
  N     0.601362  3.853249  1.343138
  N     0.571359  7.464410  1.045006
  N     0.136287  4.104801  5.139086
  N     0.216109  7.361529  4.997676
  S    -0.686842  4.023135  3.750349
  S    -0.665855  7.095211  3.604842
  S     2.222664  4.202536  0.835732
  S     2.155926  8.085019  0.723528
  S     1.797185  4.178448  5.033341
  S     1.780427  7.803805  4.788171
