16  
    
  C     1.958285  4.398797  3.400417
  C     1.671498  7.754975  3.001333
  C     0.729960  3.977391  2.749527
  C     0.391292  7.540593  2.348868
  N     2.998053  4.487198  2.555379
  N     2.737318  7.959493  2.214877
  N     0.737197  4.151991  1.425897
  N     0.455950  7.640372  1.017381
  N     0.195362  3.984127  5.271767
  N    -0.040707  7.438464  4.956621
  S    -0.553959  3.700578  3.768996
  S    -0.894921  7.214992  3.520663
  S     2.346968  4.515168  0.984699
  S     2.140723  7.814972  0.702257
  S     1.817918  4.307653  5.102392
  S     1.611585  7.639928  4.755373
