16  
    
  C     0.515741  3.711655  2.940510
  C     0.556574  7.520738  2.892759
  C    -0.830986  3.468077  2.387480
  C    -0.598395  7.018978  2.158383
  N     1.493203  3.721045  2.038727
  N     1.632324  7.684166  2.157290
  N    -0.849394  3.554864  1.067318
  N    -0.322137  6.854599  0.889865
  N    -1.053181  3.594040  4.971497
  N    -1.379008  7.270890  4.565728
  S    -2.037503  3.288544  3.587220
  S    -2.032779  7.040496  3.081889
  S     0.755323  3.683221  0.562397
  S     1.324150  7.230649  0.559300
  S     0.518049  3.812377  4.657790
  S     0.162603  7.702734  4.558900
