16  
    
  C    -5.339223  0.964738  1.616753
  C    -5.183563  4.694095  1.480292
  C    -6.666717  0.829417  0.970568
  C    -6.459627  4.340764  0.910907
  N    -4.314988  1.117534  0.780772
  N    -4.196082  4.617014  0.610058
  N    -6.621012  0.654172 -0.357483
  N    -6.455993  3.972555 -0.369780
  N    -7.182839  1.067782  3.457842
  N    -6.787587  4.550798  3.435044
  S    -8.039369  0.943126  2.064502
  S    -7.721020  4.362858  2.060365
  S    -5.030163  0.907665 -0.745683
  S    -4.882880  4.168246 -0.818264
  S    -5.540630  1.332216  3.257934
  S    -5.198856  5.126519  3.190754
