16  
    
  C    -3.705487  1.876456  1.860145
  C    -3.971338  5.337195  1.781349
  C    -4.874454  1.358684  1.201984
  C    -5.082163  4.897922  1.049834
  N    -2.719925  2.106825  1.030601
  N    -2.923469  5.616512  1.025049
  N    -4.909144  1.370668 -0.126348
  N    -4.919701  4.830181 -0.272876
  N    -5.353604  1.483094  3.678289
  N    -5.785232  4.971175  3.518976
  S    -6.181268  1.139415  2.293023
  S    -6.419539  4.406844  2.045436
  S    -3.341350  1.850180 -0.512664
  S    -3.382726  5.417458 -0.490411
  S    -3.747426  1.892912  3.563201
  S    -4.233022  5.444812  3.490012
