16  
    
  C     3.166408  5.150834  3.434317
  C     3.299282  9.090087  3.692981
  C     2.054589  4.608872  2.723064
  C     2.087455  8.790389  2.957631
  N     4.193067  5.380287  2.621340
  N     4.405066  9.144247  2.906267
  N     2.154029  4.444307  1.422648
  N     2.335464  8.588325  1.618958
  N     1.341739  4.740160  5.177582
  N     1.391935  8.911300  5.392118
  S     0.638846  4.272967  3.725940
  S     0.643109  8.551585  4.014819
  S     3.696992  4.845166  1.067412
  S     3.890508  8.965060  1.352032
  S     2.904910  5.376777  5.170041
  S     2.993151  9.260797  5.379338
