16  
    
  C     2.443226  5.014261  3.511644
  C     2.468626  8.650205  3.433527
  C     1.314630  4.430488  2.810774
  C     1.253229  8.051800  2.897315
  N     3.551476  4.951152  2.774165
  N     3.405503  8.893100  2.494544
  N     1.498457  4.384295  1.507283
  N     1.304478  7.891591  1.562293
  N     0.650373  4.508481  5.247128
  N     0.966243  8.472031  5.427736
  S    -0.007978  3.927365  3.800012
  S     0.026014  7.898128  4.190753
  S     3.087275  4.689955  1.224840
  S     2.838755  8.319339  1.093699
  S     2.210167  5.042464  5.206735
  S     2.461077  8.965036  5.094427
