16  
    
  C    -2.284449  2.563325  1.925530
  C    -2.193047  5.878046  2.189618
  C    -3.553749  2.035299  1.403092
  C    -3.408583  5.461007  1.566172
  N    -1.264646  2.540839  1.061231
  N    -1.153199  6.210302  1.333526
  N    -3.505213  1.771544  0.103801
  N    -3.288580  5.300279  0.242756
  N    -3.933263  2.386398  3.942929
  N    -4.115383  5.922042  4.021526
  S    -4.789607  2.006638  2.553895
  S    -4.874908  5.425986  2.601493
  S    -1.966134  2.081448 -0.419904
  S    -1.738225  5.668820 -0.146314
  S    -2.309200  2.739705  3.664850
  S    -2.437436  6.163143  3.962464
