16  
    
  C    -4.432115  1.464927  1.919913
  C    -4.659907  4.792032  1.636210
  C    -5.577772  0.775846  1.333029
  C    -5.738858  4.340634  0.792630
  N    -3.466655  1.820231  1.046346
  N    -3.583721  5.235291  1.005039
  N    -5.584858  0.772097  0.017735
  N    -5.491995  4.451230 -0.521395
  N    -6.059639  0.864045  3.885342
  N    -6.382533  3.881352  3.315258
  S    -6.822001  0.259716  2.450225
  S    -7.119042  3.755604  1.788049
  S    -4.070067  1.388021 -0.428173
  S    -3.955300  5.042810 -0.570406
  S    -4.447540  1.295266  3.620312
  S    -4.911068  4.708964  3.390633
