16  
    
  C     3.224089  5.011167  3.437987
  C     3.396454  9.094583  3.720292
  C     2.009730  4.543679  2.819171
  C     2.179461  8.834871  2.964938
  N     4.306762  5.068427  2.661879
  N     4.522473  9.171757  3.039989
  N     2.104814  4.564894  1.473378
  N     2.504292  8.682965  1.696969
  N     1.323287  5.161868  5.233325
  N     1.469598  9.102740  5.443317
  S     0.628619  4.696113  3.842424
  S     0.743094  8.809037  4.037105
  S     3.692901  4.788191  1.086555
  S     4.083020  8.963176  1.480739
  S     2.981920  5.219057  5.197693
  S     3.087311  9.225893  5.473031
