16  
    
  C    -3.740200  1.940897  1.912727
  C    -3.555392  5.442764  1.886135
  C    -4.715122  1.121892  1.282107
  C    -4.846538  5.052268  1.313165
  N    -2.782781  2.349538  1.076336
  N    -2.525009  5.602653  1.030891
  N    -4.419748  0.739955  0.038654
  N    -4.748915  4.841475  0.022182
  N    -5.435229  1.347687  3.755608
  N    -5.291721  5.467001  3.806523
  S    -5.905389  0.545878  2.356143
  S    -6.140456  4.956052  2.437978
  S    -3.039027  1.567816 -0.335031
  S    -3.246984  5.219715 -0.481964
  S    -4.151774  2.358150  3.496009
  S    -3.645994  5.762870  3.531523
