16  
    
  C     1.958273  4.942199  3.049379
  C     2.310853  8.437279  3.131592
  C     0.801169  4.383852  2.349543
  C     1.093738  7.942569  2.456270
  N     2.975821  5.319872  2.227041
  N     3.312045  8.827702  2.349210
  N     1.091179  3.925544  1.125179
  N     1.223042  7.923047  1.141267
  N     0.142344  4.441277  4.917444
  N     0.509251  8.211367  4.996378
  S    -0.539201  4.166876  3.370341
  S    -0.246613  7.739232  3.607404
  S     2.529870  4.716629  0.704865
  S     2.838322  8.426827  0.806869
  S     1.691425  5.136495  4.781653
  S     2.086500  8.701573  4.846616
