16  
    
  C     1.941759  4.564983  3.273163
  C     1.622695  7.658621  3.065010
  C     0.757870  4.029415  2.623691
  C     0.411375  7.373627  2.354365
  N     2.950443  4.887191  2.482465
  N     2.695950  7.938115  2.295484
  N     0.934626  3.908699  1.318716
  N     0.523163  7.422739  1.018574
  N     0.330140  4.008121  5.225814
  N    -0.204979  7.540336  4.831490
  S    -0.442721  3.710603  3.818601
  S    -0.963983  7.390336  3.365411
  S     2.372782  4.600462  0.982341
  S     2.130440  7.743668  0.734349
  S     1.903530  4.490558  5.070877
  S     1.440975  7.696296  4.803215
