16  
    
  C     2.865093  5.044090  3.615486
  C     2.990229  8.630924  3.567136
  C     1.610592  4.957597  2.952620
  C     1.768201  8.309505  2.815707
  N     3.941415  4.901969  2.855831
  N     4.043396  8.678103  2.775348
  N     1.703187  4.793432  1.627184
  N     1.877440  8.225916  1.525843
  N     1.178122  5.368933  5.559620
  N     1.082011  8.719765  5.215645
  S     0.328043  5.148048  4.123225
  S     0.392241  8.404813  3.777124
  S     3.345510  4.926658  1.280492
  S     3.513863  8.306225  1.168815
  S     2.849214  5.247983  5.316995
  S     2.659135  9.055150  5.225085
