16  
    
  C     3.141234  5.090564  3.390214
  C     2.991718  8.963792  3.840815
  C     1.904896  4.617740  2.721284
  C     1.757359  8.480808  3.296846
  N     4.208948  5.089753  2.581001
  N     3.971305  9.089434  2.956309
  N     2.026249  4.570771  1.385282
  N     1.717549  8.203220  2.004173
  N     1.169097  5.031084  5.053937
  N     1.400386  9.010760  5.867421
  S     0.468366  4.671608  3.592834
  S     0.448985  8.749098  4.505139
  S     3.626520  4.876419  1.052155
  S     3.343605  8.601204  1.507438
  S     2.824158  5.261384  5.102238
  S     3.050880  9.340249  5.524614
