16  
    
  C     1.954668  4.985310  3.040854
  C     2.282128  8.444050  3.116654
  C     0.812448  4.380700  2.374389
  C     1.089830  7.941775  2.458113
  N     2.970141  5.330563  2.235045
  N     3.300216  8.836511  2.345158
  N     1.095276  3.955850  1.163321
  N     1.239029  7.914801  1.127878
  N     0.129869  4.469630  4.882650
  N     0.526535  8.204326  4.999699
  S    -0.535390  4.170999  3.372079
  S    -0.256140  7.737928  3.620529
  S     2.533496  4.724880  0.719650
  S     2.839076  8.447716  0.827651
  S     1.672599  5.139598  4.770358
  S     2.086922  8.680556  4.846044
