16  
    
  C    -3.591226  1.665516  2.074100
  C    -3.288873  5.360574  2.056870
  C    -4.663165  1.086074  1.393558
  C    -4.567908  4.957108  1.546949
  N    -2.499199  1.808581  1.328499
  N    -2.268392  5.310923  1.203349
  N    -4.420010  0.793813  0.115247
  N    -4.549527  4.691102  0.229749
  N    -5.509142  1.453423  3.831502
  N    -5.052700  5.358255  3.968441
  S    -6.120213  0.970543  2.389496
  S    -5.887082  4.936380  2.641911
  S    -2.817540  1.249472 -0.175697
  S    -3.030418  4.970500 -0.289130
  S    -3.971495  1.931560  3.727570
  S    -3.402576  5.718686  3.756648
