16  
    
  C    -3.329041  1.946130  2.023618
  C    -3.112640  5.539082  2.045289
  C    -4.551723  1.489669  1.448477
  C    -4.226603  4.835895  1.451564
  N    -2.350885  2.241878  1.172832
  N    -2.040555  5.694211  1.264637
  N    -4.547908  1.365416  0.121405
  N    -4.044058  4.548713  0.141717
  N    -4.894959  1.446495  3.938518
  N    -4.963039  5.241414  3.888795
  S    -5.773058  1.061426  2.613095
  S    -5.530971  4.486961  2.548749
  S    -3.039097  1.762323 -0.293449
  S    -2.528798  5.208507 -0.240662
  S    -3.319883  1.861576  3.692984
  S    -3.409402  5.799674  3.812337
