16  
    
  C     0.743820  3.808256  3.153213
  C     1.124377  7.561288  2.931902
  C    -0.489152  3.353993  2.474507
  C    -0.022441  6.982627  2.233942
  N     1.788639  3.952553  2.334600
  N     2.216292  7.668946  2.210596
  N    -0.436641  3.310039  1.123970
  N     0.238950  6.716375  0.972070
  N    -0.881515  3.307562  5.064056
  N    -0.786152  7.627759  4.603702
  S    -1.732324  3.173422  3.614991
  S    -1.391646  6.926176  3.233833
  S     1.180881  3.649151  0.749772
  S     1.799443  7.157760  0.665739
  S     0.707706  3.714477  4.932849
  S     0.876015  7.961153  4.559715
