16  
    
  C    -1.780661  2.502796  2.479036
  C    -1.765278  6.045775  2.411135
  C    -3.055109  2.384482  1.724631
  C    -2.908769  5.535224  1.687929
  N    -0.774423  2.593305  1.635620
  N    -0.650301  6.202971  1.657383
  N    -2.980356  2.189331  0.413117
  N    -2.615880  5.381492  0.399058
  N    -3.608024  2.373427  4.286736
  N    -3.663020  5.770602  4.135640
  S    -4.359928  2.048387  2.832939
  S    -4.299019  5.347843  2.708870
  S    -1.319297  2.387109  0.071684
  S    -1.105456  5.947017  0.080153
  S    -1.978269  2.565371  4.182072
  S    -2.032937  5.978749  4.078351
