16  
    
  C    -5.371171  1.073882  1.701259
  C    -5.113954  4.704567  1.399015
  C    -6.657428  0.787220  1.052514
  C    -6.377363  4.269383  0.789272
  N    -4.281976  1.047431  0.935904
  N    -4.074625  4.746899  0.556001
  N    -6.547390  0.603696 -0.255500
  N    -6.275955  4.084255 -0.521923
  N    -7.129604  0.996439  3.501216
  N    -7.002762  5.130387  3.106529
  S    -8.003471  0.649786  2.147067
  S    -7.782726  4.498272  1.751798
  S    -4.933243  0.796581 -0.601249
  S    -4.724221  4.408258 -0.936918
  S    -5.530999  1.325154  3.449981
  S    -5.345407  5.194385  3.063841
