16  
    
  C    -3.153553  1.920467  1.863192
  C    -3.134128  5.822265  2.096431
  C    -4.334283  1.445978  1.123206
  C    -4.355635  5.289416  1.522207
  N    -2.098651  2.110475  1.102775
  N    -2.156490  6.020873  1.201593
  N    -4.066584  1.217872 -0.145321
  N    -4.296566  5.151561  0.210373
  N    -5.107109  1.700571  3.430455
  N    -4.794202  5.387545  4.051570
  S    -5.727582  1.137358  1.996234
  S    -5.654386  5.006999  2.666924
  S    -2.474951  1.656735 -0.410440
  S    -2.838128  5.763791 -0.322121
  S    -3.502291  2.109889  3.575788
  S    -3.261675  5.777124  3.795884
