16  
    
  C    -2.622298  2.678688  2.040335
  C    -2.436785  6.140885  2.127116
  C    -3.823087  2.074244  1.497079
  C    -3.559416  5.656722  1.402205
  N    -1.620074  2.756859  1.168011
  N    -1.386859  6.301169  1.402351
  N    -3.750997  1.852376  0.196519
  N    -3.386973  5.393387  0.127589
  N    -4.316214  2.491751  4.006370
  N    -4.432239  6.092514  3.765771
  S    -5.096040  1.889196  2.645746
  S    -4.954386  5.358582  2.385080
  S    -2.167532  2.146025 -0.224455
  S    -1.866351  6.061222 -0.201524
  S    -2.704058  2.868632  3.817702
  S    -2.887949  6.657869  3.716969
