16  
    
  C     0.399804  3.822986  3.004499
  C     1.045192  7.500967  2.689938
  C    -0.480532  2.969195  2.142904
  C    -0.160899  6.991827  1.992722
  N     1.531175  4.167034  2.392468
  N     1.943609  7.938316  1.846397
  N    -0.173277  3.031635  0.853602
  N    -0.026416  7.000825  0.664402
  N    -1.474976  3.109569  4.535149
  N    -0.695716  6.922103  4.498620
  S    -1.839903  2.531307  3.075966
  S    -1.376728  6.534084  3.064725
  S     1.308615  3.774758  0.799548
  S     1.386742  7.721277  0.251846
  S     0.091311  3.813511  4.732242
  S     0.824608  7.516922  4.417033
