16  
    
  C    -6.063549  0.782316  1.363603
  C    -6.051174  4.375021  1.755861
  C    -7.219648  0.227472  0.707445
  C    -7.210620  3.889036  1.040797
  N    -5.139243  1.194478  0.489760
  N    -4.999961  4.756007  0.972300
  N    -7.209402  0.209391 -0.643394
  N    -7.107996  3.892470 -0.304492
  N    -7.668128  0.250939  3.255275
  N    -7.753866  3.662533  3.554108
  S    -8.543597 -0.080359  1.887217
  S    -8.491620  3.411034  2.070960
  S    -5.784364  0.941965 -1.009168
  S    -5.593919  4.445747 -0.550362
  S    -6.123067  0.825999  3.123342
  S    -6.280529  4.408599  3.455653
