16  
    
  C     1.387124  4.627157  3.359371
  C     1.431008  8.025945  3.134788
  C     0.118208  4.111265  2.939443
  C     0.180530  7.840067  2.438810
  N     2.328813  4.621295  2.417749
  N     2.480507  7.961369  2.325468
  N    -0.006353  3.915453  1.637445
  N     0.274427  7.743963  1.122523
  N    -0.114673  4.549684  5.469439
  N    -0.402147  7.988855  4.930477
  S    -1.142977  4.130901  4.173254
  S    -1.230125  7.791175  3.477372
  S     1.509589  4.306283  0.949286
  S     1.937630  7.682687  0.800057
  S     1.554884  4.691858  5.041551
  S     1.251485  8.126094  4.821676
