16  
    
  C     1.246700  4.610632  3.212533
  C     1.598305  7.969808  3.082904
  C    -0.017916  4.209899  2.746924
  C     0.310133  7.753319  2.412608
  N     2.148201  4.724436  2.278759
  N     2.646419  7.964418  2.260791
  N    -0.043044  3.967053  1.440053
  N     0.353247  7.584542  1.073264
  N    -0.164434  4.198036  5.299707
  N    -0.310258  8.117584  4.919521
  S    -1.237387  3.950393  3.966959
  S    -1.061945  8.204197  3.463304
  S     1.466097  4.382201  0.846410
  S     2.009506  7.686057  0.760594
  S     1.385932  4.659798  4.935782
  S     1.361847  8.157670  4.871989
