16  
    
  C     2.533181  4.963664  3.545006
  C     2.381811  8.665743  3.427314
  C     1.396506  4.287131  2.986132
  C     1.238476  7.962632  2.890058
  N     3.498394  5.281131  2.692441
  N     3.375992  8.922547  2.595584
  N     1.514243  3.996960  1.690877
  N     1.359733  7.715815  1.605331
  N     0.842667  4.549858  5.391950
  N     0.594671  8.531448  5.247811
  S     0.048712  4.245343  4.043595
  S     0.014880  7.624711  4.032753
  S     2.971522  4.670274  1.182186
  S     2.844653  8.309561  1.096999
  S     2.338846  5.198869  5.271680
  S     2.119506  9.135675  5.055927
