16  
    
  C    -4.861381  1.196296  1.585385
  C    -4.730663  4.889731  1.873747
  C    -6.012224  0.662433  0.845661
  C    -5.882800  4.295604  1.254460
  N    -3.806026  1.455504  0.777245
  N    -3.638264  5.050846  1.096468
  N    -5.806464  0.269033 -0.411135
  N    -5.657191  3.860773  0.011439
  N    -6.563909  0.793872  3.369557
  N    -6.432712  4.367430  3.808231
  S    -7.259686  0.219308  1.956472
  S    -7.218562  3.930032  2.399143
  S    -4.235804  0.869903 -0.742000
  S    -4.133351  4.341425 -0.347844
  S    -5.027798  1.332843  3.301527
  S    -4.923656  5.055691  3.606691
