16  
    
  C     2.033190  4.590657  3.252720
  C     1.581717  7.947651  3.057245
  C     0.870374  3.974118  2.683654
  C     0.432836  7.433561  2.359335
  N     3.088147  4.659749  2.391047
  N     2.631695  8.191118  2.280344
  N     0.920497  3.974268  1.333058
  N     0.545892  7.403887  1.053756
  N     0.251152  4.315394  5.203037
  N    -0.315430  7.633118  4.808356
  S    -0.529164  3.750951  3.858709
  S    -0.942483  7.020782  3.377375
  S     2.449173  4.283582  0.920267
  S     2.087667  7.852815  0.710039
  S     1.840970  4.945141  4.951277
  S     1.255038  8.153640  4.744276
