16  
    
  C     3.105474  5.206583  3.397794
  C     3.207528  8.939015  3.602716
  C     1.988191  4.493571  2.755699
  C     1.994340  8.614408  2.889657
  N     4.181130  5.339263  2.641939
  N     4.325868  9.124015  2.943536
  N     2.146736  4.372661  1.462667
  N     2.169260  8.607693  1.599599
  N     1.301943  4.861962  5.158611
  N     1.476745  8.968167  5.440490
  S     0.659476  4.213989  3.733810
  S     0.663374  8.549143  4.064981
  S     3.700054  4.940339  1.112508
  S     3.878962  8.934488  1.356327
  S     2.873879  5.364743  5.091975
  S     3.072893  9.269711  5.296372
