16  
    
  C    -4.263300  1.631127  1.970911
  C    -4.494507  5.232805  1.691790
  C    -5.433899  1.111815  1.294534
  C    -5.706642  4.802068  1.136207
  N    -3.187531  1.754699  1.168840
  N    -3.459875  5.302833  0.825923
  N    -5.207608  0.632185  0.043060
  N    -5.683253  4.531477 -0.171087
  N    -6.197699  1.582174  3.741585
  N    -6.199187  5.241708  3.640662
  S    -6.830018  0.998337  2.321490
  S    -6.995760  4.677165  2.343947
  S    -3.570876  1.071927 -0.276779
  S    -4.137381  4.857267 -0.648194
  S    -4.615361  2.020748  3.633235
  S    -4.648062  5.527061  3.425127
