16  
    
  C     0.664493  3.883200  2.888683
  C     0.588610  7.625751  2.716733
  C    -0.587683  3.537263  2.221124
  C    -0.515065  6.859290  2.286290
  N     1.726821  3.905647  2.070466
  N     1.520602  7.812678  1.801570
  N    -0.428002  3.201549  0.951794
  N    -0.504664  6.545328  0.990962
  N    -1.015160  3.642621  4.835611
  N    -0.924939  7.321402  4.738338
  S    -1.782799  3.205818  3.412990
  S    -1.745110  6.655614  3.464903
  S     1.110336  3.620651  0.556737
  S     0.896809  7.086545  0.421280
  S     0.570064  4.146541  4.636097
  S     0.548050  8.051399  4.384900
