16  
    
  C    -4.167293  1.627237  1.842654
  C    -3.924177  5.204577  1.907671
  C    -5.341240  0.912002  1.450120
  C    -5.103183  4.532934  1.365662
  N    -3.169989  1.723256  0.949221
  N    -2.979806  5.316648  0.960714
  N    -5.338445  0.552169  0.158326
  N    -4.989654  4.150578  0.098782
  N    -5.918727  1.787626  3.756527
  N    -5.815410  5.329783  3.769139
  S    -6.651711  0.952882  2.538525
  S    -6.450745  4.632405  2.377343
  S    -3.809248  1.068646 -0.444250
  S    -3.521277  4.614280 -0.419754
  S    -4.278908  1.957476  3.563034
  S    -4.181092  5.668608  3.544161
