16  
    
  C    -3.721797  1.936078  1.894827
  C    -3.581668  5.476774  1.863374
  C    -4.688757  1.145785  1.282808
  C    -4.858922  5.066277  1.300262
  N    -2.790809  2.335664  1.041559
  N    -2.549329  5.589686  1.032153
  N    -4.413287  0.743522  0.040200
  N    -4.759838  4.870608  0.004154
  N    -5.446068  1.355573  3.777235
  N    -5.279035  5.480402  3.808534
  S    -5.910019  0.552570  2.376212
  S    -6.156875  4.951076  2.408825
  S    -3.022228  1.555479 -0.351453
  S    -3.234391  5.272672 -0.493334
  S    -4.141231  2.332548  3.491862
  S    -3.638287  5.761680  3.536937
