16  
    
  C     1.886407  4.491502  3.381703
  C     1.446345  8.187056  3.027305
  C     0.579802  4.168315  2.805401
  C     0.403777  7.341999  2.419837
  N     2.828348  4.710910  2.473901
  N     2.332375  8.645518  2.131200
  N     0.699169  3.690136  1.573450
  N     0.570313  7.066587  1.133812
  N     0.088396  4.550392  5.191537
  N    -0.309260  7.564203  4.813081
  S    -0.798826  4.236677  3.875886
  S    -0.961007  6.961508  3.412661
  S     2.299351  4.045055  0.980517
  S     1.937082  7.929615  0.709882
  S     1.714985  4.855385  5.037885
  S     1.200261  8.219870  4.759495
