16  
    
  C    -4.181005  1.361897  1.832131
  C    -4.149558  5.106035  1.960430
  C    -5.412456  1.285933  1.061005
  C    -5.406962  4.912586  1.368063
  N    -3.107346  1.359169  1.023022
  N    -3.138211  5.138557  1.102432
  N    -5.272446  1.102422 -0.266939
  N    -5.389354  4.611708  0.066516
  N    -6.070493  1.563248  3.567923
  N    -5.878405  5.319948  3.852654
  S    -6.822795  1.251480  2.137830
  S    -6.691721  5.002880  2.477210
  S    -3.565473  1.150789 -0.538677
  S    -3.800249  4.807514 -0.394202
  S    -4.475722  1.512531  3.523262
  S    -4.252917  5.359101  3.740610
