16  
    
  C     0.445244  3.832072  2.851692
  C     0.841083  7.577778  2.638367
  C    -0.492305  3.024525  2.117292
  C    -0.348354  7.144088  1.988584
  N     1.597615  4.028335  2.164771
  N     1.757448  8.049645  1.841257
  N    -0.229525  2.909680  0.829469
  N    -0.239763  7.241170  0.667291
  N    -1.421129  3.185284  4.524764
  N    -0.695581  6.831447  4.501153
  S    -1.999783  2.645551  3.030142
  S    -1.516838  6.476964  3.108729
  S     1.188103  3.643857  0.589887
  S     1.251637  7.835252  0.275306
  S     0.138132  3.731790  4.582040
  S     0.780272  7.503108  4.326343
