16  
    
  C     2.625837  4.917761  3.583419
  C     2.318882  8.645421  3.423792
  C     1.403715  4.348656  2.981884
  C     1.243830  7.904408  2.819705
  N     3.511360  5.293355  2.656116
  N     3.289224  9.032790  2.588443
  N     1.567356  3.890390  1.745944
  N     1.420909  7.675841  1.488422
  N     0.887219  4.638766  5.483980
  N     0.530232  8.505111  5.312314
  S     0.018714  4.248895  4.052177
  S    -0.074219  7.573122  4.016769
  S     2.895876  4.681892  1.211443
  S     2.928360  8.302782  1.153779
  S     2.430841  5.264479  5.302545
  S     2.092986  9.154697  5.039197
