16  
    
  C    -3.185018  2.209599  1.745279
  C    -3.086022  5.893908  1.990693
  C    -4.225697  1.485581  1.007278
  C    -4.376490  5.529095  1.476714
  N    -2.106124  2.362634  0.960921
  N    -2.144241  6.070457  1.051395
  N    -4.042303  1.343187 -0.306876
  N    -4.370496  5.403439  0.125166
  N    -5.001397  1.593742  3.414640
  N    -4.581997  5.404127  4.068844
  S    -5.536049  0.963054  1.977996
  S    -5.613049  5.284095  2.714778
  S    -2.498877  1.913383 -0.552810
  S    -2.808816  5.748171 -0.441893
  S    -3.445352  2.210321  3.428022
  S    -3.080871  5.969690  3.741501
