16  
    
  C    -3.523591  1.590768  2.123125
  C    -3.264617  5.307252  2.051393
  C    -4.674681  1.158050  1.387207
  C    -4.537619  5.008322  1.495427
  N    -2.419429  1.586927  1.388604
  N    -2.265824  5.450476  1.194306
  N    -4.468870  0.798579  0.106817
  N    -4.506457  4.839568  0.158150
  N    -5.359893  1.400235  3.860328
  N    -4.954563  5.394246  3.999798
  S    -6.148836  1.097582  2.379269
  S    -5.818577  4.953552  2.614119
  S    -2.865239  1.137244 -0.149614
  S    -2.862400  5.016160 -0.252249
  S    -3.732821  1.902524  3.841119
  S    -3.377789  5.682160  3.748271
