16  
    
  C    -0.389954  3.346101  2.511505
  C    -0.326340  7.025188  2.228705
  C    -1.659095  3.051720  1.943798
  C    -1.549951  6.589481  1.723295
  N     0.587823  3.521340  1.642239
  N     0.722893  7.101421  1.376596
  N    -1.648085  2.829572  0.643064
  N    -1.570526  6.425954  0.404897
  N    -1.999833  3.159564  4.595058
  N    -1.883669  6.671360  4.354859
  S    -2.916191  2.993762  3.173964
  S    -2.807757  6.360672  3.047111
  S    -0.077459  3.152198  0.144879
  S    -0.037951  6.829646 -0.153539
  S    -0.361970  3.417708  4.247477
  S    -0.330910  7.108562  4.033447
