16  
    
  C    -4.161523  1.397832  1.919542
  C    -4.019034  5.168665  1.987553
  C    -5.370936  1.146005  1.230682
  C    -5.327169  4.744955  1.388736
  N    -3.112107  1.412666  1.100305
  N    -2.972445  4.976011  1.178107
  N    -5.286436  1.045200 -0.105117
  N    -5.257188  4.409899  0.093126
  N    -6.008636  1.416878  3.824442
  N    -5.723479  5.325982  3.908705
  S    -6.769952  1.126554  2.344675
  S    -6.598618  4.864266  2.529011
  S    -3.717872  1.193015 -0.447831
  S    -3.650973  4.483694 -0.297268
  S    -4.355564  1.610738  3.653224
  S    -4.113657  5.668684  3.647875
