16  
    
  C    -0.178423  3.200873  2.611344
  C    -0.105460  7.015554  2.496710
  C    -1.294550  2.606874  1.937655
  C    -1.302591  6.607047  1.784902
  N     0.712168  3.767771  1.790842
  N     0.956349  7.241931  1.743485
  N    -1.084387  2.256761  0.671048
  N    -1.216585  6.656934  0.465678
  N    -1.926567  2.830848  4.424545
  N    -1.855426  6.511778  4.281827
  S    -2.621171  2.286809  3.060754
  S    -2.574171  6.046845  2.845362
  S     0.408894  2.993104  0.322964
  S     0.348549  7.178167  0.158353
  S    -0.385950  3.493133  4.335661
  S    -0.205375  6.924123  4.170055
