16  
    
  C     0.195054  3.462516  2.363705
  C     0.117312  7.313689  2.892125
  C    -1.025751  3.024673  1.715328
  C    -1.002351  6.816279  2.225532
  N     1.174114  3.657700  1.502015
  N     1.165442  7.369325  2.052297
  N    -0.944077  2.932568  0.407978
  N    -0.942785  6.651325  0.916757
  N    -1.508104  2.827576  4.181073
  N    -1.762444  7.146569  4.589835
  S    -2.370573  2.754121  2.804758
  S    -2.374514  6.475477  3.180142
  S     0.592692  3.473633 -0.020792
  S     0.624570  7.022779  0.567037
  S     0.056249  3.416084  4.043876
  S    -0.114719  7.644080  4.571750
