16  
    
  C    -3.211692  1.855161  1.892162
  C    -3.205844  5.680213  2.132104
  C    -4.393608  1.582002  1.138521
  C    -4.379181  5.133480  1.457041
  N    -2.069269  1.976213  1.195189
  N    -2.293959  6.079030  1.287272
  N    -4.118622  1.344104 -0.124831
  N    -4.280717  5.069631  0.133439
  N    -5.180502  1.760014  3.660391
  N    -4.787113  5.248772  4.029994
  S    -5.718585  1.175793  2.194603
  S    -5.645419  4.798715  2.595456
  S    -2.444176  1.575539 -0.369497
  S    -2.770082  5.563917 -0.247804
  S    -3.546165  2.000387  3.601378
  S    -3.211772  5.821435  3.847514
