16  
    
  C     0.759863  3.747180  2.830969
  C     0.563877  7.585958  2.718610
  C    -0.522444  3.349140  2.277292
  C    -0.584163  6.947130  2.246595
  N     1.696920  4.026843  1.911108
  N     1.476731  7.811978  1.789445
  N    -0.511627  3.325863  0.978917
  N    -0.551305  6.585150  0.947791
  N    -1.016394  3.572101  4.750102
  N    -0.917992  7.282791  4.795303
  S    -1.874053  3.233802  3.423565
  S    -1.785756  6.637462  3.518041
  S     1.006567  3.681573  0.448915
  S     0.968180  7.168908  0.388089
  S     0.647548  3.885994  4.566400
  S     0.467079  8.108277  4.340290
