16  
    
  C    -1.341575  3.379365  2.056745
  C    -0.966617  6.848135  2.572899
  C    -2.512147  2.790964  1.426998
  C    -2.279315  6.682029  1.916696
  N    -0.391309  3.698084  1.212595
  N     0.056172  6.943801  1.709758
  N    -2.381845  2.516475  0.157309
  N    -2.252423  6.744534  0.590635
  N    -2.968717  2.831311  3.974454
  N    -2.759233  6.857942  4.465038
  S    -3.695768  2.199640  2.616568
  S    -3.565459  6.634257  2.992098
  S    -0.934772  3.213053 -0.287893
  S    -0.712449  7.021508  0.222358
  S    -1.521645  3.605075  3.748121
  S    -1.067668  7.016119  4.325051
