16  
    
  C    -5.538274  1.075920  1.333832
  C    -5.122663  5.001245  1.352396
  C    -6.660901  0.476947  0.631960
  C    -6.166226  4.183849  0.748186
  N    -4.461283  1.335077  0.575931
  N    -4.182824  5.448420  0.501839
  N    -6.571567  0.378026 -0.712889
  N    -6.078044  4.120284 -0.600000
  N    -7.249416  0.545595  3.170065
  N    -6.747247  4.459884  3.310570
  S    -7.962870  0.071414  1.767417
  S    -7.449441  3.804609  1.953336
  S    -4.977233  0.916426 -1.009630
  S    -4.719913  4.978838 -1.018252
  S    -5.734815  1.177193  3.073512
  S    -5.367801  5.322466  3.040714
