16  
    
  C    -2.591004  2.087709  2.016432
  C    -2.479911  5.746105  2.154801
  C    -3.814777  1.750944  1.400042
  C    -3.654824  5.384822  1.378886
  N    -1.556955  2.153028  1.180737
  N    -1.408910  5.883075  1.382483
  N    -3.752440  1.660702  0.071739
  N    -3.453936  5.154405  0.102109
  N    -4.361848  2.148261  3.904933
  N    -4.498657  5.963194  3.804303
  S    -5.219835  2.032281  2.440381
  S    -5.087435  5.273010  2.398738
  S    -2.138957  1.941164 -0.337821
  S    -1.872108  5.318432 -0.199443
  S    -2.686289  2.388170  3.713305
  S    -2.845629  6.053194  3.839507
