16  
    
  C     0.866988  3.867265  2.521358
  C     1.578747  8.178619  3.250489
  C    -0.337001  3.461154  1.874074
  C     0.273455  8.010730  2.600951
  N     1.788938  4.182586  1.611266
  N     2.582036  8.313847  2.381019
  N    -0.189746  3.166655  0.581710
  N     0.284067  7.905737  1.250386
  N    -0.807159  3.716411  4.374055
  N    -0.218494  8.110056  5.163513
  S    -1.600117  3.158106  3.013957
  S    -1.092694  7.972625  3.774709
  S     1.327540  3.649429  0.184291
  S     1.908113  8.187691  0.882098
  S     0.748947  4.187310  4.202006
  S     1.428999  8.158241  5.060526
