16  
    
  C    -2.300242  2.396043  1.972854
  C    -2.439363  6.224043  2.152472
  C    -3.612040  2.089841  1.415514
  C    -3.510453  5.596861  1.518954
  N    -1.361542  2.543117  1.037604
  N    -1.323999  6.282910  1.395197
  N    -3.598902  1.821662  0.107019
  N    -3.291138  5.143952  0.289591
  N    -3.972780  2.402683  3.907379
  N    -4.128258  5.857388  3.964373
  S    -4.917281  2.017493  2.601502
  S    -4.859438  5.445452  2.523912
  S    -2.056607  2.147767 -0.378690
  S    -1.708551  5.669727 -0.096487
  S    -2.432194  2.867169  3.613947
  S    -2.531026  6.191485  3.875839
