16  
    
  C    -3.761091  1.963720  1.945779
  C    -3.554784  5.440050  1.907186
  C    -4.712202  1.046962  1.312183
  C    -4.776223  4.888741  1.401262
  N    -2.811058  2.349057  1.111350
  N    -2.592069  5.475325  1.027068
  N    -4.358305  0.796517  0.060698
  N    -4.750207  4.564533  0.097212
  N    -5.516699  1.357794  3.738810
  N    -5.204551  5.334118  3.962342
  S    -6.006126  0.494234  2.340306
  S    -6.050366  4.938277  2.533715
  S    -3.004163  1.680411 -0.337679
  S    -3.185946  4.890310 -0.428688
  S    -4.224307  2.414972  3.560984
  S    -3.602947  5.809954  3.685743
