16  
    
  C     1.901250  4.649125  3.264530
  C     1.455577  8.036512  3.019609
  C     0.735848  3.999687  2.724159
  C     0.387801  7.277161  2.337452
  N     2.931428  4.644776  2.425150
  N     2.425675  8.511938  2.226812
  N     0.847438  3.709398  1.414742
  N     0.605017  7.112120  1.010605
  N     0.110393  4.515023  5.210144
  N    -0.308966  7.611931  4.852311
  S    -0.571192  4.054782  3.779973
  S    -0.919384  6.966545  3.429747
  S     2.351264  4.162746  0.993709
  S     2.019101  7.949332  0.720627
  S     1.789011  4.881186  5.033937
  S     1.229213  8.266180  4.731855
