16  
    
  C     3.148252  5.013791  3.480222
  C     3.372958  8.912974  3.699458
  C     1.851096  4.912843  2.813668
  C     2.093452  8.848821  3.057111
  N     4.218744  5.087545  2.690403
  N     4.480682  8.708420  2.952456
  N     2.004361  4.610510  1.513503
  N     2.187753  8.560498  1.780179
  N     1.390277  5.154679  5.383300
  N     1.691511  9.035987  5.640119
  S     0.589799  4.725034  3.983169
  S     0.811080  9.102338  4.256950
  S     3.669938  4.631869  1.203120
  S     3.909291  8.521124  1.400147
  S     3.019069  5.252333  5.168085
  S     3.381971  9.277378  5.368228
