16  
    
  C    -0.401520  3.457233  2.938605
  C    -0.973678  6.727770  2.715951
  C    -1.561423  2.895859  2.318905
  C    -2.022259  6.293176  1.891838
  N     0.629767  3.671039  2.095547
  N     0.155441  7.085720  2.090333
  N    -1.410041  2.665467  1.026070
  N    -1.711171  6.150240  0.607701
  N    -2.252890  3.354585  4.704747
  N    -2.949708  6.390490  4.334634
  S    -2.977207  2.832841  3.332090
  S    -3.488974  6.043408  2.818219
  S     0.119300  3.096158  0.620136
  S    -0.054423  6.608515  0.496660
  S    -0.638793  3.745602  4.658408
  S    -1.394400  6.985012  4.410132
