16  
    
  C     0.469676  3.618572  2.940699
  C     0.452964  7.550438  2.829865
  C    -0.837741  3.680049  2.405829
  C    -0.784203  7.212872  2.191111
  N     1.453246  3.972857  2.092647
  N     1.579264  7.585606  2.105062
  N    -0.845307  3.688292  1.062222
  N    -0.629379  7.029157  0.870489
  N    -1.128013  3.244011  4.933478
  N    -1.337938  7.454479  4.807058
  S    -2.072328  3.305517  3.558060
  S    -2.121331  7.083875  3.401328
  S     0.710016  3.899139  0.598550
  S     0.954482  7.195207  0.600865
  S     0.517186  3.349440  4.656701
  S     0.294209  7.843320  4.592418
