16  
    
  C    -0.048781  3.322436  2.575753
  C     0.006475  7.137313  2.670663
  C    -1.101217  2.577978  1.854212
  C    -1.209802  6.684995  1.976539
  N     0.956509  3.659457  1.748174
  N     0.961115  7.431337  1.782327
  N    -0.961719  2.650929  0.528782
  N    -1.090268  6.576242  0.670071
  N    -1.848762  2.958382  4.324280
  N    -1.777197  6.520922  4.494025
  S    -2.434709  2.297104  2.874192
  S    -2.565931  6.407806  3.015780
  S     0.580023  3.199151  0.228556
  S     0.369426  7.209772  0.284815
  S    -0.280973  3.524687  4.265538
  S    -0.194479  7.037946  4.402303
