16  
    
  C     2.004508  4.397236  3.004844
  C     2.003399  7.874604  3.153197
  C     0.748508  3.923408  2.449966
  C     0.801351  7.531862  2.406431
  N     3.078862  4.316910  2.171829
  N     3.119006  8.035415  2.458562
  N     0.812952  3.803039  1.096388
  N     1.049860  7.505003  1.102815
  N     0.264447  4.269904  4.993312
  N     0.115330  7.830301  4.931029
  S    -0.522255  3.954708  3.542173
  S    -0.564476  7.364078  3.449989
  S     2.394080  3.936876  0.740005
  S     2.679283  7.796772  0.861761
  S     1.876405  4.792577  4.742481
  S     1.750615  8.239608  4.814656
