16  
    
  C    -2.105462  2.468801  1.962529
  C    -2.084100  5.730487  2.198431
  C    -3.316487  1.960504  1.409341
  C    -3.411317  5.567415  1.525491
  N    -1.102480  2.546317  1.112969
  N    -1.062852  5.760803  1.399702
  N    -3.315292  1.770038  0.086218
  N    -3.312966  5.426518  0.204743
  N    -3.828411  2.353984  3.884964
  N    -3.894661  5.865176  4.055242
  S    -4.681061  1.931750  2.530088
  S    -4.700895  5.421676  2.667450
  S    -1.756303  2.063210 -0.378802
  S    -1.744710  5.770797 -0.109015
  S    -2.204393  2.554198  3.667292
  S    -2.241662  6.141880  3.889687
