16  
    
  C    -1.175927  2.994805  2.256071
  C    -0.951978  6.893381  2.455033
  C    -2.527492  2.764053  1.708990
  C    -2.229648  6.639068  1.874783
  N    -0.165521  3.025507  1.381382
  N    -0.028402  7.086913  1.503092
  N    -2.529766  2.802612  0.373933
  N    -2.250192  6.453258  0.533415
  N    -2.880709  3.128228  4.269946
  N    -2.620171  6.743827  4.398661
  S    -3.731245  2.736655  2.864554
  S    -3.534716  6.558204  3.008212
  S    -0.934383  2.893959 -0.117771
  S    -0.728942  6.886549  0.026741
  S    -1.209767  3.306480  3.995045
  S    -0.999183  7.014079  4.208475
