16  
    
  C     0.834747  4.211491  2.458034
  C     1.553226  8.274046  3.246552
  C    -0.269839  3.392902  1.888236
  C     0.264039  8.104138  2.572184
  N     1.889168  4.268237  1.652833
  N     2.580882  8.456972  2.409968
  N    -0.113211  3.130349  0.595444
  N     0.306454  8.111620  1.250957
  N    -0.851767  3.810356  4.365152
  N    -0.259269  8.214063  5.117014
  S    -1.614069  3.118433  3.014183
  S    -1.063861  7.973773  3.674695
  S     1.377095  3.656879  0.178638
  S     1.853068  8.295276  0.861350
  S     0.695564  4.192599  4.173652
  S     1.427494  8.359545  4.944108
