16  
    
  C     0.861557  3.985614  2.509067
  C     1.499219  8.393006  3.163508
  C    -0.318622  3.519591  1.838553
  C     0.219546  8.181126  2.538391
  N     1.816402  4.395920  1.653645
  N     2.528534  8.466074  2.333284
  N    -0.110421  3.174354  0.569571
  N     0.274821  8.148126  1.219949
  N    -0.919472  3.742197  4.339772
  N    -0.184954  8.167053  5.037759
  S    -1.561709  3.134140  2.970232
  S    -1.073362  7.984820  3.661898
  S     1.473050  3.696204  0.199859
  S     1.936468  8.393934  0.832925
  S     0.697274  4.301246  4.258281
  S     1.435919  8.526118  4.920025
