16  
    
  C     1.938659  5.108788  3.061795
  C     2.163045  8.618515  3.175128
  C     0.820221  4.422462  2.386385
  C     1.011515  8.084049  2.516799
  N     2.978969  5.468540  2.339618
  N     3.228403  8.906991  2.437543
  N     1.076617  4.206925  1.111590
  N     1.244887  7.849240  1.218670
  N     0.026146  4.770906  4.832363
  N     0.458304  8.108049  5.050561
  S    -0.588516  4.099629  3.345034
  S    -0.283621  7.733887  3.593019
  S     2.616310  4.762262  0.852653
  S     2.748344  8.530398  0.838862
  S     1.644855  5.233879  4.806900
  S     2.116325  8.531779  4.916048
