16  
    
  C     2.523779  4.971819  3.540013
  C     2.384823  8.669714  3.426382
  C     1.395345  4.277952  2.984721
  C     1.235325  7.966832  2.901225
  N     3.495231  5.275838  2.692509
  N     3.384012  8.911002  2.590086
  N     1.512173  4.012605  1.686891
  N     1.358455  7.717715  1.610506
  N     0.836020  4.543731  5.392421
  N     0.604469  8.534392  5.245043
  S     0.051298  4.243561  4.042263
  S     0.021030  7.628517  4.031599
  S     2.979027  4.668854  1.181573
  S     2.837948  8.311022  1.093927
  S     2.333190  5.194221  5.267859
  S     2.120819  9.134057  5.060400
