16  
    
  C    -0.567973  3.183381  2.871148
  C    -1.272985  6.669459  2.699053
  C    -1.791390  2.909746  2.212219
  C    -2.303838  6.136641  1.904483
  N     0.463472  3.203542  2.018044
  N    -0.181556  6.972277  2.000750
  N    -1.682070  2.465718  0.948505
  N    -2.097625  6.131407  0.578885
  N    -2.416904  3.194066  4.749076
  N    -3.169534  6.118816  4.258950
  S    -3.141454  2.745762  3.261624
  S    -3.786247  5.754015  2.775791
  S    -0.110655  2.767780  0.554093
  S    -0.451533  6.562170  0.409545
  S    -0.773059  3.654125  4.541515
  S    -1.641095  6.708087  4.350201
