16  
    
  C    -4.345269  1.603516  1.996346
  C    -4.614324  5.232497  1.721980
  C    -5.452416  0.907747  1.403412
  C    -5.824472  4.612554  1.128513
  N    -3.296639  1.751568  1.205758
  N    -3.637097  5.342401  0.823363
  N    -5.308965  0.758879  0.065458
  N    -5.762070  4.322607 -0.147604
  N    -6.160462  1.342341  3.873992
  N    -6.312958  4.708985  3.655747
  S    -6.823249  0.810530  2.432434
  S    -7.098355  4.450605  2.226157
  S    -3.832045  1.242932 -0.314546
  S    -4.252821  4.828201 -0.644824
  S    -4.541317  1.897632  3.676425
  S    -4.801848  5.394418  3.411675
