16  
    
  C     0.505518  3.650453  2.930528
  C     0.537520  7.520619  2.884022
  C    -0.858580  3.558055  2.384774
  C    -0.588307  7.001134  2.189219
  N     1.471226  3.713600  2.042257
  N     1.641527  7.682694  2.134148
  N    -0.874473  3.521725  1.085509
  N    -0.366821  6.852186  0.894048
  N    -1.077324  3.576400  4.976171
  N    -1.388290  7.265376  4.586417
  S    -2.020615  3.290376  3.575230
  S    -2.043117  7.051151  3.084591
  S     0.755217  3.739712  0.551903
  S     1.302841  7.223536  0.558829
  S     0.527073  3.766395  4.667743
  S     0.163571  7.719314  4.580701
