16  
    
  C    -3.595466  1.937992  1.807872
  C    -3.883593  5.265107  1.725715
  C    -4.793148  1.443703  1.149366
  C    -5.109228  4.709738  1.078043
  N    -2.647000  2.282536  0.957746
  N    -2.935247  5.646535  0.818117
  N    -4.773550  1.347520 -0.190026
  N    -4.946003  4.600790 -0.219350
  N    -5.180604  1.212312  3.702195
  N    -5.788606  5.159367  3.470179
  S    -6.106801  1.189107  2.379014
  S    -6.469088  4.326697  2.161680
  S    -3.266682  1.955168 -0.642179
  S    -3.428282  5.111487 -0.637754
  S    -3.793362  2.063378  3.535832
  S    -4.209748  5.442568  3.454728
