16  
    
  C     3.009430  5.385592  3.851322
  C     2.670998  8.525600  3.123581
  C     1.715912  4.947217  3.350268
  C     1.349138  8.200781  2.590194
  N     4.023328  5.135081  2.984446
  N     3.617673  8.510265  2.216633
  N     1.733731  4.664954  2.019834
  N     1.319829  8.085351  1.269716
  N     1.234851  5.703645  5.814513
  N     0.991613  8.776411  5.008290
  S     0.356115  5.294506  4.418134
  S     0.067988  8.199653  3.812425
  S     3.309175  4.793795  1.549638
  S     2.908873  8.185207  0.793954
  S     2.905475  5.864845  5.564544
  S     2.632418  9.017429  4.829618
