16  
    
  C    -4.136433  1.650792  1.878373
  C    -3.897854  5.210877  1.895205
  C    -5.340791  0.947861  1.389601
  C    -5.064234  4.493418  1.386088
  N    -3.198460  1.698638  0.906552
  N    -2.913900  5.294198  1.013557
  N    -5.330383  0.563164  0.107811
  N    -4.946003  4.111983  0.095191
  N    -5.930416  1.785720  3.819402
  N    -5.810175  5.343759  3.776881
  S    -6.651882  0.955170  2.565522
  S    -6.458621  4.664428  2.435597
  S    -3.801093  1.066160 -0.462677
  S    -3.467498  4.621162 -0.436326
  S    -4.258463  1.928187  3.601997
  S    -4.175509  5.680115  3.563683
