16  
    
  C     0.960298  4.042720  2.587019
  C     1.477931  7.822513  3.287590
  C    -0.233553  3.524947  1.842989
  C     0.165199  7.779122  2.632242
  N     2.045765  4.209614  1.843569
  N     2.524435  7.894389  2.473304
  N    -0.029492  3.284299  0.546912
  N     0.284627  7.736605  1.312182
  N    -0.988961  3.657857  4.285951
  N    -0.256129  7.889911  5.111690
  S    -1.630359  3.204738  2.898471
  S    -1.110850  7.737410  3.748056
  S     1.553167  3.781732  0.240452
  S     1.864405  7.800556  0.914725
  S     0.637263  4.064479  4.262373
  S     1.395721  8.030131  4.951991
