16  
    
  C    -1.189424  3.314713  2.191098
  C    -1.083093  6.827556  2.530479
  C    -2.453539  2.760575  1.670719
  C    -2.391090  6.727551  1.907349
  N    -0.239483  3.411016  1.276543
  N    -0.027211  6.944355  1.695779
  N    -2.479456  2.571812  0.340076
  N    -2.289971  6.664326  0.540522
  N    -2.726216  2.943425  4.267792
  N    -2.821165  6.838156  4.484299
  S    -3.681802  2.632721  2.906323
  S    -3.640292  6.543668  3.122225
  S    -0.969790  3.056606 -0.193966
  S    -0.724236  7.003609  0.195928
  S    -1.127995  3.309919  3.874397
  S    -1.195083  7.128109  4.286756
