16  
    
  C    -1.548231  2.990905  1.969980
  C    -0.981398  6.887240  2.304652
  C    -2.580984  2.209865  1.390311
  C    -2.281997  6.546603  1.779109
  N    -0.486786  3.318342  1.202090
  N    -0.114280  7.157505  1.348311
  N    -2.425525  2.155454  0.067218
  N    -2.306953  6.339433  0.459737
  N    -3.317431  2.543444  3.828477
  N    -2.713834  6.773167  4.356025
  S    -3.860140  1.802247  2.431343
  S    -3.558493  6.644724  2.961016
  S    -0.936450  2.759808 -0.324099
  S    -0.765268  6.674852 -0.113856
  S    -1.888020  3.376394  3.656867
  S    -1.113128  7.120218  4.054311
