16  
    
  C    -5.203083  1.020579  1.804082
  C    -5.207280  4.961909  1.328306
  C    -6.432435  0.523784  1.171565
  C    -6.367555  4.441814  0.646860
  N    -4.204308  1.235211  0.957473
  N    -4.116250  4.914844  0.595106
  N    -6.272573  0.313725 -0.130204
  N    -6.138963  4.156994 -0.630209
  N    -7.056072  1.047455  3.568088
  N    -6.943622  4.743236  3.140704
  S    -7.884546  0.514128  2.243614
  S    -7.731591  4.302393  1.710691
  S    -4.788490  0.797538 -0.537418
  S    -4.508792  4.446041 -0.922840
  S    -5.472828  1.334685  3.479140
  S    -5.392376  5.281498  2.997535
