16  
    
  C    -1.192796  3.298632  2.169252
  C    -1.096220  7.061395  2.637510
  C    -2.454368  2.803022  1.621913
  C    -2.369232  6.778194  2.002222
  N    -0.380328  3.711392  1.209057
  N    -0.090274  7.048802  1.761364
  N    -2.435461  2.554255  0.295979
  N    -2.322546  6.797838  0.655631
  N    -2.683145  2.924215  4.182115
  N    -2.804178  6.702203  4.526312
  S    -3.633223  2.531046  2.901360
  S    -3.695202  6.573347  3.073220
  S    -0.933187  3.074127 -0.227683
  S    -0.687151  6.900420  0.195814
  S    -1.112303  3.346266  3.895842
  S    -1.193435  7.100069  4.348930
