16  
    
  C     0.517475  3.721506  3.095298
  C     1.081994  7.510149  2.637632
  C    -0.533703  3.221837  2.227924
  C    -0.049674  6.988375  1.980694
  N     1.583569  4.163970  2.447405
  N     2.086734  7.948789  1.849378
  N    -0.139761  2.994568  0.959157
  N    -0.030428  6.943014  0.636455
  N    -1.373421  3.088548  4.629856
  N    -0.720229  6.937431  4.542933
  S    -1.877451  2.524983  3.117035
  S    -1.400956  6.549318  3.077390
  S     1.319976  3.859102  0.827205
  S     1.480561  7.602966  0.293864
  S     0.094974  3.806689  4.733505
  S     0.835268  7.569985  4.442797
