16  
    
  C    -3.198226  1.872637  1.888694
  C    -3.201494  5.680361  2.124839
  C    -4.390127  1.568420  1.131816
  C    -4.395581  5.145023  1.452882
  N    -2.062907  1.990077  1.200200
  N    -2.295612  6.080629  1.295425
  N    -4.114786  1.348222 -0.132097
  N    -4.279986  5.073071  0.126688
  N    -5.187164  1.765629  3.657230
  N    -4.793190  5.260924  4.027302
  S    -5.714695  1.171454  2.185031
  S    -5.644091  4.811536  2.594203
  S    -2.447054  1.570483 -0.369573
  S    -2.778464  5.576655 -0.241857
  S    -3.548405  2.001979  3.589955
  S    -3.201623  5.821723  3.846848
