16  
    
  C    -3.406621  1.570223  2.053625
  C    -3.117531  5.445708  2.069088
  C    -4.662185  1.243251  1.473898
  C    -4.342784  5.100314  1.491281
  N    -2.360841  1.533869  1.210501
  N    -2.099953  5.539152  1.224256
  N    -4.560043  1.044854  0.157140
  N    -4.305446  4.801092  0.190218
  N    -5.170045  1.611955  4.015799
  N    -4.949624  5.203087  3.913368
  S    -5.961033  1.178937  2.625227
  S    -5.712573  4.943410  2.503527
  S    -2.955465  1.225400 -0.287721
  S    -2.725351  5.118813 -0.248580
  S    -3.541278  1.742908  3.859223
  S    -3.364083  5.678651  3.727520
