16  
    
  C    -3.358073  1.692047  1.563269
  C    -3.737034  5.348893  1.660507
  C    -4.598016  1.128214  0.987488
  C    -4.988942  4.953869  1.053432
  N    -2.366146  1.848783  0.694411
  N    -2.787780  5.710972  0.801338
  N    -4.444214  0.874361 -0.292631
  N    -4.937750  4.855920 -0.256399
  N    -5.061597  1.453658  3.506110
  N    -5.549264  5.235419  3.528168
  S    -5.808805  0.940259  2.144188
  S    -6.319672  4.708323  2.199849
  S    -2.913164  1.368008 -0.760818
  S    -3.357586  5.279158 -0.744242
  S    -3.612411  2.153177  3.278533
  S    -3.942571  5.558269  3.331520
