16  
    
  C    -3.456517  1.824008  1.670319
  C    -3.622977  5.605560  1.725185
  C    -4.577072  1.083425  1.098324
  C    -4.797997  5.175986  1.056960
  N    -2.385292  1.908821  0.901836
  N    -2.583133  5.961607  0.971803
  N    -4.422359  0.817684 -0.218307
  N    -4.667998  5.164417 -0.268569
  N    -5.141602  1.500703  3.516755
  N    -5.441000  5.114711  3.562930
  S    -5.819082  0.800554  2.191642
  S    -6.230660  4.903789  2.110908
  S    -2.880911  1.286382 -0.559163
  S    -3.140901  5.587055 -0.634134
  S    -3.626304  2.091236  3.364036
  S    -3.906383  5.639526  3.434980
