16  
    
  C    -0.243042  3.083167  2.623636
  C    -0.177543  7.019021  2.388625
  C    -1.519593  2.706508  2.063740
  C    -1.299742  6.284286  1.746182
  N     0.698339  3.299191  1.723698
  N     0.700767  7.370702  1.458352
  N    -1.437651  2.432766  0.773031
  N    -1.113740  6.107282  0.445850
  N    -1.844913  2.912026  4.584052
  N    -1.955196  6.609200  4.269330
  S    -2.774417  2.410643  3.295231
  S    -2.606304  5.947730  2.869264
  S     0.057205  2.999833  0.259416
  S     0.361581  6.742077  0.003421
  S    -0.332696  3.331081  4.278884
  S    -0.451707  7.215788  4.108458
