16  
    
  C    -1.791061  2.490260  2.467631
  C    -1.755376  6.033728  2.401442
  C    -3.065053  2.391161  1.726810
  C    -2.907362  5.534854  1.684731
  N    -0.773601  2.598469  1.634780
  N    -0.642179  6.184247  1.671483
  N    -2.989158  2.207806  0.419240
  N    -2.624229  5.383762  0.414401
  N    -3.609437  2.372435  4.290816
  N    -3.663413  5.769787  4.128366
  S    -4.359002  2.040903  2.837894
  S    -4.302377  5.343289  2.694084
  S    -1.326456  2.384340  0.080445
  S    -1.108395  5.950890  0.083279
  S    -1.983647  2.559137  4.184392
  S    -2.029430  5.973235  4.069122
