16  
    
  C    -2.486480  2.596152  2.050445
  C    -2.421812  6.203967  2.099526
  C    -3.784541  2.199604  1.458587
  C    -3.518561  5.586790  1.404999
  N    -1.505321  2.662221  1.172699
  N    -1.365750  6.325397  1.367815
  N    -3.719644  1.859613  0.190826
  N    -3.351939  5.362283  0.111527
  N    -4.249581  2.480964  3.965812
  N    -4.348042  5.960296  3.869738
  S    -5.066226  1.925740  2.620471
  S    -4.940551  5.370992  2.423577
  S    -2.178278  2.141576 -0.319322
  S    -1.782738  5.861652 -0.170512
  S    -2.651157  2.900917  3.706624
  S    -2.797095  6.589442  3.822006
