16  
    
  C     0.550614  3.712540  3.119071
  C     1.096757  7.533107  2.656649
  C    -0.536971  3.240657  2.240859
  C    -0.049380  6.976427  1.991116
  N     1.595731  4.168741  2.427636
  N     2.083429  7.929738  1.844906
  N    -0.126324  3.019751  0.991175
  N    -0.018968  6.943094  0.639448
  N    -1.356307  3.082076  4.654997
  N    -0.713654  6.946632  4.550989
  S    -1.887014  2.532872  3.130237
  S    -1.410593  6.551540  3.073906
  S     1.319070  3.866130  0.835040
  S     1.506401  7.579716  0.305158
  S     0.092248  3.798292  4.733114
  S     0.841742  7.584028  4.438177
