16  
    
  C    -1.724231  2.557437  2.399562
  C    -1.750243  6.067168  2.414419
  C    -2.969382  2.127714  1.735402
  C    -2.935987  5.589973  1.666961
  N    -0.663731  2.653059  1.599755
  N    -0.725015  6.466111  1.619465
  N    -2.805563  2.053010  0.419218
  N    -2.723947  5.427746  0.351753
  N    -3.574907  2.339489  4.223851
  N    -3.592272  5.738410  4.233472
  S    -4.389215  2.158267  2.774707
  S    -4.306045  5.371046  2.720488
  S    -1.249951  2.381864  0.076143
  S    -1.097530  5.875409  0.089612
  S    -1.933914  2.665474  4.145970
  S    -1.954191  6.125667  4.211396
