16  
    
  C     0.580343  3.625665  2.735164
  C     0.757252  7.664766  2.694772
  C    -0.633994  3.181628  2.125955
  C    -0.451115  7.122290  2.048588
  N     1.628309  3.701989  1.934467
  N     1.668998  8.054101  1.789479
  N    -0.566907  3.300490  0.797319
  N    -0.460984  7.138407  0.723167
  N    -1.246990  3.282047  4.620789
  N    -0.846370  6.890039  4.505335
  S    -2.009158  2.830576  3.178233
  S    -1.711178  6.603079  3.113025
  S     1.003046  3.606795  0.397663
  S     1.053570  7.746987  0.312625
  S     0.391391  3.599108  4.450814
  S     0.622124  7.665205  4.379655
