16  
    
  C    -0.465280  3.206006  2.927906
  C    -1.111770  6.832008  2.752974
  C    -1.742873  2.910275  2.257878
  C    -2.196905  6.296150  1.914420
  N     0.576916  3.338058  2.124638
  N     0.030060  6.962517  2.112934
  N    -1.527849  2.636744  0.970979
  N    -1.835705  6.078695  0.671634
  N    -2.370142  3.412835  4.762437
  N    -3.075338  6.253145  4.230728
  S    -3.031577  2.722125  3.359135
  S    -3.659313  5.944503  2.717744
  S     0.063880  2.994726  0.625432
  S    -0.239068  6.610719  0.505822
  S    -0.698906  3.772210  4.565228
  S    -1.535159  6.838295  4.419156
