16  
    
  C    -2.620018  2.497558  2.356304
  C    -2.660756  5.835900  2.042712
  C    -3.783009  1.925465  1.739431
  C    -3.833075  5.373780  1.337551
  N    -1.713190  3.001345  1.509698
  N    -1.621170  6.173011  1.277751
  N    -3.628226  1.768404  0.429804
  N    -3.758715  5.531260 -0.022412
  N    -4.366227  2.021512  4.166766
  N    -4.535638  5.495497  3.738521
  S    -5.022063  1.387616  2.802487
  S    -5.217189  4.962053  2.324085
  S    -2.259846  2.567395 -0.016386
  S    -2.212201  5.869136 -0.317506
  S    -2.844759  2.618256  4.096113
  S    -2.900096  5.936372  3.746240
