16  
    
  C    -5.298511  0.990619  1.756742
  C    -5.175651  4.789872  1.315744
  C    -6.489102  0.465524  1.153985
  C    -6.383970  4.337340  0.641435
  N    -4.207954  1.176436  0.982442
  N    -4.055772  4.882058  0.589373
  N    -6.443316  0.393056 -0.201682
  N    -6.184811  4.113126 -0.673107
  N    -7.150964  1.048958  3.644850
  N    -7.006498  4.865652  3.142636
  S    -7.879201  0.579410  2.227421
  S    -7.771063  4.402776  1.750788
  S    -4.810361  0.829035 -0.577983
  S    -4.576388  4.465452 -0.932982
  S    -5.508907  1.333594  3.455938
  S    -5.391592  5.277615  2.998800
