16  
    
  C     0.496114  3.508500  2.943072
  C     0.484354  7.584901  2.908495
  C    -0.886025  3.598708  2.395961
  C    -0.833129  7.263879  2.321844
  N     1.472179  3.884220  2.125550
  N     1.505652  7.551001  2.013955
  N    -0.813921  3.732272  1.066371
  N    -0.843973  7.142258  0.972884
  N    -1.172761  3.011206  4.895665
  N    -1.242477  7.612693  4.825313
  S    -2.142232  3.188422  3.511974
  S    -2.103323  7.187727  3.479700
  S     0.769232  3.921821  0.610516
  S     0.687103  7.367264  0.572912
  S     0.444751  3.352316  4.666362
  S     0.413604  7.816893  4.647753
