16  
    
  C     0.844683  3.872672  2.508609
  C     1.547840  8.140453  3.238930
  C    -0.307953  3.398681  1.882862
  C     0.257831  8.012175  2.593900
  N     1.795550  4.150001  1.642593
  N     2.596095  8.292338  2.416450
  N    -0.212333  3.210292  0.545631
  N     0.308344  7.875719  1.253824
  N    -0.776586  3.694079  4.380341
  N    -0.212060  8.075905  5.176763
  S    -1.609314  3.168046  3.008402
  S    -1.094817  7.968182  3.776857
  S     1.322069  3.646292  0.167348
  S     1.899688  8.163647  0.891543
  S     0.751214  4.191760  4.235933
  S     1.453915  8.138394  5.065881
