16  
    
  C    -3.747222  1.972682  1.965860
  C    -3.490646  5.389278  1.945144
  C    -4.656870  1.028672  1.291571
  C    -4.792065  4.924612  1.453106
  N    -2.727749  2.386462  1.231105
  N    -2.504473  5.404590  1.081069
  N    -4.380235  0.760328  0.011447
  N    -4.683424  4.437814  0.210131
  N    -5.629478  1.419099  3.701719
  N    -5.108927  5.276352  3.934122
  S    -6.003015  0.596354  2.378678
  S    -6.073977  4.911275  2.627002
  S    -2.987278  1.636586 -0.311556
  S    -3.150631  4.819106 -0.293196
  S    -4.237740  2.252710  3.572036
  S    -3.536451  5.777903  3.639284
