16  
    
  C    -0.351742  3.258114  2.533380
  C    -0.277052  7.021868  2.291546
  C    -1.714636  3.090718  1.987211
  C    -1.600507  6.574309  1.760098
  N     0.616907  3.563299  1.650792
  N     0.653078  7.106792  1.351371
  N    -1.652484  2.941178  0.646788
  N    -1.570936  6.408799  0.424676
  N    -2.002909  3.172664  4.562510
  N    -1.926841  6.670752  4.368650
  S    -2.924217  2.973127  3.212962
  S    -2.806719  6.310476  3.026864
  S    -0.059202  3.160743  0.182766
  S    -0.078367  6.798970 -0.130457
  S    -0.379434  3.474625  4.244470
  S    -0.342605  7.113961  4.087997
