16  
    
  C    -6.025510  0.854553  1.481728
  C    -6.154469  4.452039  1.742922
  C    -7.155968  0.156102  0.953120
  C    -7.263799  4.062027  1.027185
  N    -5.142976  1.267650  0.588182
  N    -5.028413  4.633446  1.061546
  N    -7.081759  0.094398 -0.362247
  N    -7.067378  4.035173 -0.282545
  N    -7.466811  0.214084  3.487190
  N    -8.034492  4.177712  3.520509
  S    -8.309456 -0.231453  2.097571
  S    -8.730634  3.827152  2.042765
  S    -5.676127  0.807742 -0.869936
  S    -5.462265  4.448553 -0.533005
  S    -6.043790  1.067370  3.233077
  S    -6.446413  4.538229  3.410627
