16  
    
  C     0.703306  3.862532  2.867083
  C     0.600168  7.582194  2.699620
  C    -0.481982  3.340949  2.302017
  C    -0.585796  6.914331  2.226020
  N     1.724098  3.960809  1.977953
  N     1.521153  7.843872  1.795516
  N    -0.517320  3.304724  0.970928
  N    -0.579049  6.556839  0.951022
  N    -0.999733  3.595273  4.782657
  N    -0.893502  7.290238  4.767006
  S    -1.870480  3.227713  3.413323
  S    -1.778734  6.642366  3.517647
  S     1.035412  3.678428  0.450619
  S     0.946348  7.145930  0.427849
  S     0.634438  3.947956  4.576245
  S     0.476041  8.098770  4.340652
