16  
    
  C     3.501843  5.419080  3.594694
  C     3.541305  9.032870  3.497257
  C     2.274093  4.942842  2.959389
  C     2.407890  8.451596  2.782061
  N     4.496934  5.470640  2.740020
  N     4.456229  9.455445  2.683016
  N     2.298603  4.869789  1.621771
  N     2.607396  8.422177  1.449191
  N     1.773875  4.902424  5.423722
  N     1.828820  8.700350  5.410285
  S     0.939319  4.662688  4.012753
  S     1.105951  8.103140  4.041701
  S     3.842827  5.260397  1.231784
  S     4.063216  9.097201  1.150781
  S     3.355441  5.379961  5.303285
  S     3.319745  9.380289  5.212620
