16  
    
  C     2.017644  4.583894  3.270556
  C     1.621571  7.895722  3.066743
  C     0.799314  4.057341  2.671755
  C     0.398435  7.502597  2.343519
  N     3.033398  4.611290  2.454230
  N     2.680238  8.137837  2.261817
  N     0.876738  3.927358  1.368028
  N     0.479144  7.466413  0.992465
  N     0.320563  4.249911  5.214166
  N    -0.313801  7.633494  4.811652
  S    -0.441852  3.705702  3.836000
  S    -0.930755  7.070421  3.332679
  S     2.479975  4.372143  0.898411
  S     2.105619  7.791383  0.758710
  S     1.842131  4.922344  4.938913
  S     1.280991  8.084639  4.786120
