16  
    
  C    -0.787945  3.038666  2.463537
  C    -0.808530  6.630334  2.421346
  C    -2.055526  2.741365  1.829237
  C    -1.958208  6.087656  1.715445
  N     0.174201  3.254319  1.592030
  N     0.306994  6.595524  1.724848
  N    -2.026126  2.517156  0.512542
  N    -1.737917  5.784319  0.458974
  N    -2.486156  2.851300  4.380679
  N    -2.616583  6.344112  4.201747
  S    -3.406147  2.627227  3.018688
  S    -3.317445  5.940018  2.711515
  S    -0.432981  2.864290  0.078101
  S    -0.176194  6.195030  0.218670
  S    -0.909656  3.333914  4.138292
  S    -0.958670  6.627306  4.129434
