16  
    
  C     2.262300  4.324867  3.112590
  C     1.981224  8.258313  3.142018
  C     1.081551  4.089859  2.305248
  C     0.835841  7.594624  2.549396
  N     3.325941  4.512694  2.354599
  N     3.045982  8.190201  2.351736
  N     1.318879  3.773155  1.037298
  N     1.096406  7.012825  1.365262
  N     0.253390  4.365181  4.786659
  N     0.124998  8.214843  4.908149
  S    -0.410939  3.937158  3.283518
  S    -0.596440  7.605342  3.562291
  S     2.932924  4.034523  0.796720
  S     2.599972  7.446917  0.941941
  S     1.819300  4.814743  4.655184
  S     1.658454  8.851731  4.723534
