16  
    
  C     0.471431  3.713838  2.986549
  C     0.946857  7.545377  2.647810
  C    -0.444242  3.028876  2.177076
  C    -0.146356  7.002817  1.980025
  N     1.469938  4.229760  2.262217
  N     1.899303  7.956833  1.825384
  N    -0.172234  3.027353  0.851383
  N    -0.126410  7.056876  0.664547
  N    -1.455495  3.169628  4.554425
  N    -0.688853  6.908712  4.497210
  S    -1.881109  2.529786  3.045163
  S    -1.443679  6.497301  3.049476
  S     1.308008  3.704949  0.741725
  S     1.344244  7.792533  0.301218
  S     0.042705  3.780223  4.675121
  S     0.866611  7.508147  4.386670
