16  
    
  C    -6.129003  0.942227  1.420762
  C    -6.132352  4.461810  1.901738
  C    -7.291008  0.311768  0.902732
  C    -7.320258  4.071329  1.073146
  N    -5.258762  1.324222  0.469593
  N    -5.085940  4.708397  1.096772
  N    -7.213158  0.121044 -0.418321
  N    -7.095900  3.995092 -0.245105
  N    -7.536015  0.183214  3.502455
  N    -8.068222  4.189970  3.501277
  S    -8.329291 -0.406341  2.119847
  S    -8.647646  3.610547  2.004815
  S    -5.826623  0.815123 -0.966573
  S    -5.522633  4.362428 -0.454290
  S    -6.059693  0.967404  3.167515
  S    -6.416281  4.405469  3.606363
