16  
    
  C    -6.056997  0.808200  1.394899
  C    -6.075656  4.331121  1.810444
  C    -7.241439  0.172802  0.822613
  C    -7.252666  3.936105  1.055680
  N    -5.245850  1.310660  0.478544
  N    -4.994451  4.683089  1.083986
  N    -7.273446  0.137712 -0.518940
  N    -7.036869  3.876003 -0.269515
  N    -7.615645  0.279500  3.379829
  N    -7.913748  3.773123  3.612529
  S    -8.379680 -0.340819  2.024953
  S    -8.679325  3.552134  2.109075
  S    -5.915994  0.903332 -0.958608
  S    -5.506303  4.456147 -0.483185
  S    -6.118643  0.911853  3.120096
  S    -6.403106  4.482506  3.528982
