16  
    
  C    -2.302925  2.419996  1.968690
  C    -2.408457  6.186636  2.187774
  C    -3.575242  2.089402  1.416953
  C    -3.495650  5.586805  1.520689
  N    -1.345533  2.538205  1.030225
  N    -1.306952  6.278865  1.394908
  N    -3.590169  1.813606  0.111401
  N    -3.286310  5.154579  0.284162
  N    -3.963075  2.399603  3.897776
  N    -4.121107  5.868662  3.967872
  S    -4.907106  2.017030  2.600716
  S    -4.868829  5.442220  2.533537
  S    -2.047485  2.140538 -0.377240
  S    -1.712062  5.665162 -0.110545
  S    -2.418109  2.849639  3.612310
  S    -2.515167  6.183171  3.887531
