16  
    
  C    -0.833117  2.990373  2.443938
  C    -0.766430  6.621975  2.432137
  C    -2.093411  2.762486  1.849580
  C    -1.925444  6.142717  1.725401
  N     0.167561  3.252713  1.588503
  N     0.342620  6.672353  1.696663
  N    -2.042014  2.575992  0.509341
  N    -1.723477  5.821157  0.432762
  N    -2.552412  2.884706  4.417472
  N    -2.563366  6.329374  4.180807
  S    -3.407239  2.639328  2.996806
  S    -3.282221  5.973428  2.688642
  S    -0.440099  2.843584  0.087495
  S    -0.188696  6.178894  0.209157
  S    -0.935085  3.362013  4.147038
  S    -0.938301  6.631965  4.144129
