16  
    
  C    -4.136445  1.610253  1.899466
  C    -3.951631  5.123497  1.965909
  C    -5.403073  1.086492  1.343862
  C    -5.105610  4.594798  1.385992
  N    -3.170019  1.596159  1.023830
  N    -2.926592  5.201572  1.128315
  N    -5.420158  0.787786  0.062918
  N    -4.936298  4.157362  0.147236
  N    -5.822273  1.549548  3.824997
  N    -5.671880  5.374087  3.780740
  S    -6.659043  0.961710  2.555157
  S    -6.489492  4.685482  2.468019
  S    -3.787451  1.056432 -0.442072
  S    -3.386465  4.589711 -0.276926
  S    -4.211894  1.841159  3.610852
  S    -4.019974  5.758758  3.563208
