16  
    
  C     1.932391  4.176232  3.355578
  C     1.739693  7.818359  3.033383
  C     0.605753  4.173425  2.688952
  C     0.425214  7.603823  2.403547
  N     2.963930  4.368742  2.507567
  N     2.757322  7.957909  2.208885
  N     0.731151  4.173795  1.333114
  N     0.463789  7.638221  1.081981
  N     0.225428  3.945865  5.210012
  N     0.068156  7.355463  4.916028
  S    -0.677354  3.748608  3.817014
  S    -0.780147  7.112536  3.538434
  S     2.328574  4.362697  0.997529
  S     2.072896  7.897728  0.694902
  S     1.796232  4.266058  5.109497
  S     1.692254  7.686357  4.773639
