16  
    
  C     2.614914  4.937202  3.572903
  C     2.291324  8.657656  3.406174
  C     1.406258  4.327093  3.015948
  C     1.218037  7.880430  2.818668
  N     3.505879  5.275514  2.642435
  N     3.272017  9.044673  2.573189
  N     1.576787  3.903200  1.764474
  N     1.452315  7.661364  1.479817
  N     0.882254  4.666054  5.516339
  N     0.537707  8.492255  5.317771
  S     0.025796  4.248112  4.061841
  S    -0.092114  7.564550  4.000935
  S     2.892349  4.682443  1.219423
  S     2.951672  8.306881  1.166192
  S     2.459022  5.282296  5.303186
  S     2.074455  9.156226  5.048680
