16  
    
  C     0.505934  3.976234  2.923289
  C     0.714647  7.481112  2.839609
  C    -0.668670  3.365533  2.408481
  C    -0.480616  7.125743  2.068190
  N     1.561494  3.918888  2.100315
  N     1.855636  7.652812  2.104104
  N    -0.604793  2.983107  1.144836
  N    -0.252353  6.926375  0.756690
  N    -1.162327  3.860772  4.873955
  N    -1.307846  7.166367  4.566343
  S    -1.951843  3.322602  3.572820
  S    -1.894979  6.871508  3.064728
  S     0.918871  3.342260  0.651650
  S     1.318289  7.202910  0.550027
  S     0.482351  4.190078  4.682512
  S     0.259520  7.758668  4.561940
