16  
    
  C    -4.336481  1.572598  1.979112
  C    -4.604247  5.059506  1.715243
  C    -5.571556  1.105420  1.369652
  C    -5.825336  4.492670  1.065872
  N    -3.370985  1.798766  1.100488
  N    -3.661511  5.340962  0.810497
  N    -5.480881  0.774092  0.064144
  N    -5.692619  4.348954 -0.250589
  N    -6.017270  1.198959  3.917071
  N    -6.345617  4.656443  3.608716
  S    -6.842013  0.693941  2.557814
  S    -7.125324  4.212302  2.220294
  S    -3.868402  1.240638 -0.409959
  S    -4.172660  4.840803 -0.690810
  S    -4.521625  1.809753  3.690752
  S    -4.839624  5.326740  3.490826
