16  
    
  C     3.218611  5.011789  3.436017
  C     3.389472  9.107832  3.716448
  C     2.007482  4.538373  2.817591
  C     2.175003  8.836211  2.956626
  N     4.304640  5.074745  2.666700
  N     4.523074  9.174586  3.044815
  N     2.101726  4.568245  1.475045
  N     2.507312  8.676904  1.698029
  N     1.327394  5.161810  5.230516
  N     1.462554  9.088651  5.445811
  S     0.625302  4.690274  3.838169
  S     0.735241  8.807333  4.036791
  S     3.696942  4.788044  1.086837
  S     4.087676  8.969423  1.484565
  S     2.987565  5.220174  5.197285
  S     3.090356  9.227509  5.467509
