16  
    
  C    -3.717439  1.937494  1.888941
  C    -3.587330  5.485217  1.856085
  C    -4.684706  1.145782  1.282642
  C    -4.858695  5.070159  1.296971
  N    -2.790085  2.333227  1.034574
  N    -2.557656  5.586439  1.031309
  N    -4.412083  0.744989  0.040314
  N    -4.763699  4.877724 -0.002773
  N    -5.448542  1.357475  3.780434
  N    -5.276104  5.482702  3.807763
  S    -5.911858  0.554183  2.381225
  S    -6.160507  4.950078  2.402568
  S    -3.017888  1.552217 -0.356585
  S    -3.230686  5.285615 -0.495448
  S    -4.137788  2.326908  3.492578
  S    -3.637023  5.761485  3.539604
