16  
    
  C     1.956994  4.955477  3.046911
  C     2.301817  8.438820  3.125898
  C     0.803082  4.383715  2.357138
  C     1.091760  7.941457  2.456295
  N     2.974794  5.324145  2.229322
  N     3.308675  8.831350  2.347550
  N     1.092687  3.934513  1.138780
  N     1.227835  7.920509  1.136644
  N     0.137763  4.450416  4.906812
  N     0.515217  8.208960  4.997456
  S    -0.537495  4.168511  3.370516
  S    -0.249842  7.738853  3.612133
  S     2.531010  4.719639  0.709573
  S     2.838998  8.433913  0.814102
  S     1.685090  5.137658  4.777997
  S     2.086548  8.694589  4.846412
