16  
    
  C    -2.594087  2.043279  2.015603
  C    -2.527021  5.838889  2.120205
  C    -3.856838  1.889538  1.353842
  C    -3.705081  5.341946  1.392516
  N    -1.523749  2.182489  1.220502
  N    -1.476471  5.818254  1.337422
  N    -3.760600  1.732833  0.044286
  N    -3.579642  5.085465  0.116462
  N    -4.444179  2.009872  3.798881
  N    -4.458536  5.851328  3.796050
  S    -5.227359  1.924677  2.380000
  S    -5.121978  5.291766  2.381992
  S    -2.225059  2.081974 -0.332208
  S    -1.913057  5.364274 -0.160217
  S    -2.854197  2.441478  3.719432
  S    -2.841827  6.141052  3.832905
