16  
    
  C    -1.744462  2.243184  1.897390
  C    -1.861014  6.580861  2.043770
  C    -3.038504  2.118714  1.348945
  C    -2.907485  5.727954  1.534108
  N    -0.691222  2.370137  1.070830
  N    -0.732317  6.683047  1.323567
  N    -2.983018  1.989012  0.016869
  N    -2.592510  5.266530  0.310884
  N    -3.445052  2.305666  3.860795
  N    -3.478518  6.012696  4.000527
  S    -4.275811  1.805029  2.510410
  S    -4.307105  5.503908  2.634155
  S    -1.398393  2.262822 -0.442249
  S    -1.152229  5.916126 -0.115895
  S    -1.780309  2.519253  3.635638
  S    -2.142151  7.003951  3.731111
