16  
    
  C     0.130822  3.442408  2.324878
  C     0.278574  7.584791  2.844472
  C    -1.150415  3.369898  1.721862
  C    -0.777302  6.801534  2.327244
  N     1.103964  3.566554  1.444239
  N     1.256222  7.771768  1.970328
  N    -1.140079  3.190408  0.402555
  N    -0.675363  6.455793  1.067120
  N    -1.593368  3.409788  4.209778
  N    -1.492951  7.183810  4.658757
  S    -2.419132  3.021274  2.857106
  S    -2.155408  6.603124  3.253865
  S     0.456596  3.536910 -0.064714
  S     0.862836  6.915893  0.652154
  S     0.055355  3.652345  4.081996
  S     0.005372  7.926691  4.545155
