16  
    
  C     3.116828  5.042216  3.409730
  C     3.255034  8.854579  3.581732
  C     1.940677  4.524935  2.676770
  C     2.021514  8.575977  2.928543
  N     4.136772  5.446062  2.648995
  N     4.281900  9.071407  2.790553
  N     2.250123  4.293693  1.386887
  N     2.153183  8.570212  1.628610
  N     1.166688  5.053996  5.136474
  N     1.504900  8.914598  5.487826
  S     0.634148  4.145731  3.853071
  S     0.706542  8.567946  4.062755
  S     3.696591  5.003208  1.090759
  S     3.716136  8.848177  1.287619
  S     2.793959  5.348474  5.063852
  S     3.158278  9.299739  5.275773
