16  
    
  C    -0.975869  3.067479  2.486221
  C    -0.653272  6.568621  2.360471
  C    -2.190934  2.896107  1.817061
  C    -1.878892  6.264835  1.656192
  N     0.078590  3.034158  1.665896
  N     0.442573  6.620925  1.587205
  N    -2.113137  2.626043  0.509605
  N    -1.724187  6.005838  0.345124
  N    -2.816138  3.203290  4.333351
  N    -2.432081  6.498124  4.207014
  S    -3.610209  2.793628  2.884137
  S    -3.192647  6.128880  2.797847
  S    -0.513505  2.740928  0.153769
  S    -0.122086  6.441867  0.009582
  S    -1.130794  3.391163  4.152550
  S    -0.788116  6.749137  4.073408
