16  
    
  C     2.473826  4.913270  3.494457
  C     2.505617  8.680971  3.435662
  C     1.282005  4.462390  2.795950
  C     1.288537  8.064270  2.917370
  N     3.526020  5.202446  2.727496
  N     3.456993  8.784482  2.491314
  N     1.508028  4.232047  1.482843
  N     1.300540  7.759089  1.594311
  N     0.745664  4.477261  5.455349
  N     0.681305  8.534725  5.370343
  S    -0.028587  4.082289  3.968457
  S     0.053434  7.710626  4.039173
  S     3.106137  4.649208  1.217468
  S     2.746874  8.316771  1.057224
  S     2.283563  5.140247  5.220524
  S     2.302124  9.120091  5.158411
