16  
    
  C    -1.690244  2.488303  2.444509
  C    -1.753000  6.113521  2.441261
  C    -2.923136  2.129359  1.736412
  C    -2.932738  5.604987  1.730262
  N    -0.670478  2.713876  1.606306
  N    -0.744336  6.459857  1.624592
  N    -2.802084  1.998933  0.398622
  N    -2.723283  5.459649  0.391443
  N    -3.557032  2.331814  4.210965
  N    -3.572231  5.720490  4.211873
  S    -4.378871  2.182064  2.762099
  S    -4.294386  5.378124  2.714163
  S    -1.215631  2.370162  0.085011
  S    -1.115309  5.873204  0.096238
  S    -1.939660  2.697190  4.114926
  S    -1.927527  6.170950  4.193040
