16  
    
  C     0.870828  3.949169  2.569559
  C     1.549828  7.963826  3.297331
  C    -0.321980  3.443451  1.819907
  C     0.227677  7.846585  2.678427
  N     1.903884  4.086793  1.777828
  N     2.542146  7.880693  2.406808
  N    -0.189414  3.424332  0.492525
  N     0.288793  7.803310  1.353397
  N    -0.901535  3.625263  4.365623
  N    -0.232720  7.830958  5.218224
  S    -1.628383  3.169748  2.907753
  S    -1.067619  7.803311  3.756214
  S     1.459345  3.711008  0.249849
  S     1.916843  7.881055  0.861224
  S     0.751576  4.051969  4.300425
  S     1.437955  8.026720  5.066726
