16  
    
  C     2.953199  5.070783  3.240502
  C     2.873449  9.123242  3.814408
  C     1.733289  4.789094  2.569756
  C     1.654434  8.692701  3.107371
  N     4.056773  5.194461  2.511790
  N     3.946774  9.295692  3.094674
  N     1.979642  4.459502  1.291400
  N     1.924270  8.537248  1.841750
  N     1.168984  4.964208  5.037425
  N     1.242357  8.886889  5.670431
  S     0.385481  4.494042  3.627941
  S     0.393295  8.368159  4.333629
  S     3.545909  4.765135  0.978077
  S     3.565239  8.829987  1.553917
  S     2.811311  5.352316  4.943463
  S     2.774088  9.418241  5.499427
