16  
    
  C     0.318112  3.504538  2.878965
  C     0.406576  7.643600  2.786291
  C    -0.934333  3.262779  2.181714
  C    -0.933432  7.472058  2.231027
  N     1.327875  3.977865  2.135224
  N     1.406947  7.676860  1.875153
  N    -0.743309  3.287676  0.843049
  N    -0.978245  7.514429  0.902939
  N    -1.460693  3.102965  4.718579
  N    -1.236101  7.523859  4.755737
  S    -2.218622  2.821538  3.230027
  S    -2.204185  7.437475  3.420671
  S     0.815874  3.706834  0.579871
  S     0.510053  7.544267  0.433055
  S     0.146235  3.447811  4.632980
  S     0.401565  7.567001  4.556795
