16  
    
  C     0.542267  3.658138  2.951666
  C     0.481898  7.594943  2.924239
  C    -0.784437  3.504778  2.414838
  C    -0.731480  7.157959  2.247247
  N     1.477159  3.956781  2.036096
  N     1.523302  7.549273  2.135302
  N    -0.899526  3.749997  1.130001
  N    -0.601532  6.911614  0.967484
  N    -1.126417  3.352833  4.937031
  N    -1.301834  7.376545  4.668722
  S    -2.095445  3.335364  3.569200
  S    -2.102536  7.061541  3.243042
  S     0.716062  3.866584  0.551766
  S     1.065585  7.201320  0.605323
  S     0.520351  3.423188  4.667163
  S     0.258599  7.821989  4.573177
