16  
    
  C    -0.331047  3.495746  2.946335
  C    -0.862196  6.920459  2.702507
  C    -1.548827  2.971268  2.296237
  C    -1.915798  6.333349  1.910554
  N     0.625333  3.823961  2.060205
  N     0.291363  7.006140  2.002207
  N    -1.392263  2.661259  1.026325
  N    -1.615735  6.129752  0.611109
  N    -2.243311  3.284501  4.803513
  N    -2.831033  6.484185  4.346837
  S    -2.937641  2.892418  3.280610
  S    -3.403945  6.042295  2.858200
  S     0.138593  3.141209  0.599961
  S    -0.041221  6.638322  0.413814
  S    -0.609241  3.733465  4.641675
  S    -1.301248  7.015805  4.451976
