16  
    
  C    -3.579707  1.817131  1.826842
  C    -3.585108  5.716418  1.765320
  C    -4.558695  0.961112  1.241059
  C    -4.806847  5.307255  1.168093
  N    -2.593869  2.184863  1.030254
  N    -2.554694  5.873157  0.914363
  N    -4.393369  0.622929 -0.021570
  N    -4.764024  5.301619 -0.151324
  N    -5.343087  1.514382  3.630690
  N    -5.399569  5.193211  3.638823
  S    -5.905943  0.702472  2.293528
  S    -6.166701  4.945140  2.183167
  S    -3.004233  1.443152 -0.431544
  S    -3.175095  5.604252 -0.567513
  S    -3.806590  2.165630  3.446482
  S    -3.782063  5.715029  3.502634
