16  
    
  C    -6.148924  0.875255  1.383012
  C    -6.082122  4.423719  1.856954
  C    -7.274699  0.149789  0.845921
  C    -7.273404  3.941186  1.097835
  N    -5.223064  1.333041  0.518764
  N    -4.986726  4.683320  1.091866
  N    -7.320633  0.131432 -0.481234
  N    -7.069085  3.917773 -0.230305
  N    -7.565123  0.269231  3.355889
  N    -8.000210  3.889244  3.583555
  S    -8.345977 -0.371909  2.030521
  S    -8.654523  3.572067  2.092172
  S    -5.911333  0.867883 -0.949021
  S    -5.510343  4.423906 -0.463967
  S    -6.080290  0.934076  3.158092
  S    -6.426691  4.443321  3.513518
