16  
    
  C     0.709162  3.921340  2.962202
  C     0.677532  7.602543  2.721158
  C    -0.530503  3.479177  2.293045
  C    -0.548285  6.904506  2.272950
  N     1.712867  4.008612  2.122506
  N     1.559137  7.791384  1.727892
  N    -0.423869  3.287194  1.001527
  N    -0.477568  6.455417  1.000018
  N    -1.042842  3.728571  4.804796
  N    -0.987506  7.386875  4.774315
  S    -1.785523  3.176492  3.441831
  S    -1.746796  6.659062  3.440369
  S     1.198324  3.464362  0.628632
  S     0.955057  7.097924  0.355242
  S     0.497004  4.290033  4.621988
  S     0.573965  7.976075  4.485167
