16  
    
  C     0.085139  3.599046  2.376062
  C     0.280789  7.517557  2.819517
  C    -1.244919  3.299076  1.792628
  C    -0.803292  6.817622  2.212159
  N     1.068536  3.706004  1.503400
  N     1.318033  7.620810  2.020916
  N    -1.156935  2.979288  0.505933
  N    -0.647178  6.553682  0.920719
  N    -1.654573  3.516867  4.287805
  N    -1.399398  7.316197  4.683691
  S    -2.532298  3.036806  2.930245
  S    -2.129438  6.604922  3.336290
  S     0.409381  3.349736  0.012814
  S     0.948484  7.104173  0.528181
  S    -0.098058  3.911159  4.064935
  S     0.097209  7.945862  4.459528
