16  
    
  C    -6.072899  0.757182  1.346333
  C    -5.993553  4.401560  1.754589
  C    -7.285366  0.304886  0.722827
  C    -7.236594  3.947102  1.053935
  N    -5.159303  1.186291  0.494151
  N    -5.006841  4.777610  0.920583
  N    -7.187629  0.257852 -0.611129
  N    -7.092981  3.893161 -0.274710
  N    -7.706066  0.236855  3.225871
  N    -7.766141  3.707883  3.560198
  S    -8.531983 -0.015237  1.826634
  S    -8.465062  3.361061  2.060473
  S    -5.731892  0.914550 -0.989681
  S    -5.609344  4.441503 -0.594024
  S    -6.104443  0.803330  3.101019
  S    -6.250502  4.361752  3.426275
