16  
    
  C     2.927154  5.271413  3.559398
  C     2.969110  8.735434  3.428632
  C     1.734301  4.841728  2.849705
  C     1.847418  8.171214  2.755922
  N     3.976654  5.491492  2.778378
  N     3.966432  9.185627  2.602380
  N     1.870443  4.783804  1.550473
  N     1.967759  8.033970  1.449466
  N     1.102264  4.983552  5.309392
  N     1.033247  8.400420  5.201740
  S     0.396922  4.542971  3.840913
  S     0.450099  7.957877  3.642604
  S     3.442386  5.286691  1.240566
  S     3.474531  8.713521  1.071638
  S     2.687997  5.341389  5.258631
  S     2.629720  8.883359  5.191013
