16  
    
  C     3.103701  5.019184  3.471818
  C     3.368164  8.892916  3.700895
  C     1.903831  4.498379  2.920797
  C     2.037973  8.701616  3.252197
  N     4.149706  5.083388  2.642551
  N     4.311656  8.566355  2.737935
  N     1.958815  4.413659  1.580847
  N     1.903091  8.284472  1.994875
  N     1.450229  4.998957  5.425330
  N     1.798155  9.393518  5.711186
  S     0.573899  4.689750  4.068446
  S     0.823868  9.065713  4.384196
  S     3.524110  4.723192  1.178130
  S     3.431118  8.207659  1.391632
  S     3.025664  5.362680  5.134778
  S     3.412430  9.218573  5.426457
