16  
    
  C    -4.706384  1.012269  1.428872
  C    -4.633849  4.629926  1.959594
  C    -5.937096  0.702564  0.732019
  C    -5.866316  4.267530  1.322322
  N    -3.655473  1.072234  0.626901
  N    -3.609909  4.763670  1.113862
  N    -5.762198  0.663571 -0.612973
  N    -5.756764  4.027498  0.029151
  N    -6.628881  0.901225  3.276173
  N    -6.571483  4.579101  3.763343
  S    -7.306478  0.430540  1.821234
  S    -7.259823  4.104387  2.340764
  S    -4.217225  0.936060 -0.925242
  S    -4.227301  4.491997 -0.420338
  S    -4.910082  1.160030  3.185510
  S    -4.904507  4.894286  3.701978
