16  
    
  C    -2.596240  2.687017  2.014315
  C    -2.457913  6.152556  2.136642
  C    -3.785400  2.100296  1.517028
  C    -3.603819  5.638516  1.391550
  N    -1.553560  2.718424  1.175412
  N    -1.310990  6.286653  1.395889
  N    -3.741688  1.890128  0.195905
  N    -3.333974  5.347909  0.087329
  N    -4.316243  2.489017  3.998892
  N    -4.403730  6.050806  3.833875
  S    -5.088848  1.903731  2.621474
  S    -4.908004  5.367489  2.388239
  S    -2.177029  2.128594 -0.266792
  S    -1.864993  5.985949 -0.183390
  S    -2.669974  2.879450  3.767098
  S    -2.862092  6.642923  3.770346
