16  
    
  C    -1.734407  2.313207  1.908160
  C    -1.820872  6.414461  2.080361
  C    -2.961333  1.945468  1.305764
  C    -2.976182  5.823901  1.423062
  N    -0.693945  2.449817  1.078283
  N    -0.726632  6.527359  1.336845
  N    -2.937067  2.044803 -0.037488
  N    -2.689916  5.451169  0.160901
  N    -3.466904  2.362673  3.773735
  N    -3.573412  6.130966  3.990136
  S    -4.306797  1.827484  2.466706
  S    -4.225517  5.543440  2.596270
  S    -1.335626  2.223805 -0.443171
  S    -1.050380  5.912876 -0.170261
  S    -1.824674  2.416326  3.652628
  S    -2.129337  6.927342  3.772619
