16  
    
  C    -1.078347  3.093995  2.428101
  C    -0.621662  6.485218  2.350649
  C    -2.321503  2.715666  1.791889
  C    -1.869352  6.218828  1.706330
  N     0.051903  3.091983  1.680266
  N     0.385018  6.643491  1.522408
  N    -2.180705  2.643364  0.455363
  N    -1.800596  6.163521  0.379627
  N    -2.847534  3.216442  4.261539
  N    -2.327236  6.582347  4.154182
  S    -3.656329  2.926615  2.869415
  S    -3.195490  6.198057  2.770759
  S    -0.515448  2.682167  0.155599
  S    -0.215778  6.531585  0.024884
  S    -1.219384  3.369455  4.168680
  S    -0.707823  6.845643  4.004403
