16  
    
  C    -2.662563  2.624096  2.170338
  C    -2.576717  6.231682  2.073053
  C    -3.823434  1.905453  1.630119
  C    -3.658591  5.672003  1.288812
  N    -1.653986  2.798086  1.305777
  N    -1.543678  6.638941  1.317825
  N    -3.672228  1.670857  0.311557
  N    -3.444240  5.600286 -0.043334
  N    -4.396272  2.394631  4.132071
  N    -4.522480  6.092596  3.730824
  S    -5.159957  1.792418  2.747629
  S    -5.099332  5.353611  2.326716
  S    -2.216933  2.304770 -0.160141
  S    -1.907420  6.134778 -0.264874
  S    -2.792951  2.848762  3.855654
  S    -2.921574  6.600221  3.697539
