16  
    
  C    -5.427792  1.067211  1.261680
  C    -5.363052  4.992041  1.463788
  C    -6.555726  0.458847  0.578112
  C    -6.484692  4.373801  0.720380
  N    -4.362463  1.439594  0.558635
  N    -4.310916  5.328179  0.748341
  N    -6.452123  0.425146 -0.739945
  N    -6.246795  4.212667 -0.574558
  N    -7.225040  0.489176  3.104574
  N    -7.042829  4.231159  3.305243
  S    -7.926641  0.139850  1.652449
  S    -7.838902  4.024996  1.854016
  S    -4.947701  1.152371 -1.030918
  S    -4.752769  4.903294 -0.820533
  S    -5.726307  1.152321  2.966023
  S    -5.672959  5.214828  3.238681
