16  
    
  C    -1.730956  2.395310  2.021481
  C    -1.889840  6.489469  2.133496
  C    -3.052517  2.111198  1.415372
  C    -2.875190  5.544442  1.662894
  N    -0.773759  2.573114  1.129843
  N    -0.928461  6.782352  1.244649
  N    -3.010553  1.946632  0.089848
  N    -2.658938  5.139007  0.366234
  N    -3.417086  2.086905  3.974565
  N    -3.573738  6.139990  4.113166
  S    -4.321690  1.874105  2.603347
  S    -4.222367  5.407619  2.763558
  S    -1.420481  2.143124 -0.370293
  S    -1.301163  5.892005 -0.123467
  S    -1.818710  2.604776  3.720300
  S    -2.151183  6.984277  3.873705
