16  
    
  C    -4.241854  1.668468  1.894842
  C    -4.215412  5.281233  1.736604
  C    -5.397997  0.955511  1.327369
  C    -5.455603  4.723004  1.188165
  N    -3.198511  1.643671  1.074715
  N    -3.186816  5.270332  0.870062
  N    -5.274159  0.587668  0.030227
  N    -5.274464  4.339290 -0.071347
  N    -6.007123  1.608468  3.798529
  N    -5.868161  5.094696  3.815154
  S    -6.756185  0.964347  2.438986
  S    -6.715300  4.608055  2.425139
  S    -3.660424  0.994655 -0.438345
  S    -3.714754  4.688336 -0.572417
  S    -4.454563  2.190073  3.539324
  S    -4.319366  5.613659  3.404104
