16  
    
  C     0.113030  3.319632  2.462257
  C    -0.031300  7.188460  2.701975
  C    -1.156650  2.985312  1.754772
  C    -1.191304  6.694337  2.030851
  N     1.150411  3.536986  1.687221
  N     1.036888  7.466367  1.954320
  N    -0.921029  2.802102  0.469017
  N    -1.088129  6.694466  0.669984
  N    -1.687225  2.966976  4.245305
  N    -1.731645  6.756288  4.585517
  S    -2.383808  2.342149  2.847189
  S    -2.566648  6.471579  3.124416
  S     0.602243  3.330921  0.130057
  S     0.498866  7.113154  0.435457
  S    -0.165907  3.496056  4.159741
  S    -0.146892  7.255840  4.448370
