16  
    
  C    -4.292753  1.654101  1.942294
  C    -4.384911  5.205016  1.720054
  C    -5.426031  1.146845  1.234165
  C    -5.686085  4.833224  1.154669
  N    -3.221562  1.740309  1.173204
  N    -3.394599  5.282958  0.841549
  N    -5.172461  0.649307  0.021159
  N    -5.672028  4.521326 -0.129325
  N    -6.139585  1.535709  3.671676
  N    -6.191570  5.207995  3.645261
  S    -6.842399  0.993306  2.300204
  S    -6.987427  4.665903  2.290713
  S    -3.604924  1.029584 -0.251255
  S    -4.136581  4.859811 -0.624668
  S    -4.560031  2.081995  3.653774
  S    -4.553606  5.575694  3.427039
