16  
    
  C    -1.221770  3.435476  2.144630
  C    -1.102843  7.149182  2.615175
  C    -2.370570  2.740108  1.594062
  C    -2.353108  6.871707  1.974800
  N    -0.322575  3.633546  1.203270
  N    -0.066299  7.215831  1.815041
  N    -2.365660  2.554252  0.292321
  N    -2.302928  6.666455  0.696757
  N    -2.754254  2.917090  4.118565
  N    -2.754439  6.603244  4.468308
  S    -3.577490  2.336878  2.799649
  S    -3.647094  6.683623  3.077102
  S    -0.982365  3.236233 -0.254236
  S    -0.662430  6.906887  0.282217
  S    -1.223169  3.509209  3.833667
  S    -1.185515  6.974101  4.361480
