16  
    
  C     3.144965  4.930934  3.515872
  C     3.473537  8.944720  3.657032
  C     1.897398  4.578209  2.922045
  C     2.081912  8.775198  3.243742
  N     4.152623  5.117462  2.679460
  N     4.354380  8.566393  2.739732
  N     1.950304  4.427587  1.622649
  N     1.991989  8.308812  2.010135
  N     1.417661  4.997736  5.406511
  N     1.759832  9.372383  5.730594
  S     0.592259  4.698048  4.024356
  S     0.830167  9.059399  4.320366
  S     3.505541  4.702163  1.182000
  S     3.417169  8.223868  1.406562
  S     3.050527  5.385059  5.159383
  S     3.428644  9.188085  5.433845
