16  
    
  C    -0.382652  3.192995  2.586863
  C    -0.257013  7.080374  2.363276
  C    -1.616953  2.885406  1.960537
  C    -1.479951  6.649414  1.665242
  N     0.698948  3.323115  1.786303
  N     0.845336  7.227030  1.621493
  N    -1.442395  2.470625  0.693890
  N    -1.321333  6.545686  0.357818
  N    -2.109070  3.236114  4.500824
  N    -2.098309  6.762752  4.214820
  S    -2.876674  2.528402  3.140347
  S    -2.847507  6.588815  2.747355
  S     0.112227  2.917964  0.271731
  S     0.285985  6.806634  0.026995
  S    -0.510160  3.682929  4.268763
  S    -0.489124  7.209920  4.096175
