16  
    
  C    -0.361142  3.429354  2.499219
  C    -0.304206  6.892576  2.265302
  C    -1.658083  2.948027  1.975471
  C    -1.562980  6.592126  1.718943
  N     0.598113  3.466228  1.585219
  N     0.646205  7.186275  1.385709
  N    -1.611977  2.681917  0.694805
  N    -1.560810  6.494592  0.414265
  N    -1.983939  3.156912  4.459600
  N    -1.855657  6.689192  4.280165
  S    -2.908886  2.980854  3.134260
  S    -2.795518  6.448837  2.929881
  S    -0.092698  3.117107  0.124723
  S     0.029362  6.840695 -0.059699
  S    -0.374525  3.379931  4.287800
  S    -0.277583  7.140130  3.966233
