16  
    
  C     1.906291  4.195484  3.300912
  C     1.835308  7.752093  3.068220
  C     0.613228  4.011539  2.648279
  C     0.559397  7.458612  2.468429
  N     2.930510  4.333883  2.481448
  N     2.759924  8.078402  2.171073
  N     0.674409  4.106822  1.328424
  N     0.585238  7.595164  1.154457
  N     0.135004  3.946836  5.234911
  N     0.125185  7.289199  4.982730
  S    -0.717211  3.906074  3.798462
  S    -0.712168  7.096597  3.545167
  S     2.261176  4.235758  0.979342
  S     2.043945  8.004368  0.650477
  S     1.815313  4.219153  5.008550
  S     1.723795  7.757678  4.796459
