16  
    
  C    -5.369477  1.183239  1.692331
  C    -5.142262  4.741544  1.412976
  C    -6.648976  0.865236  1.077143
  C    -6.374888  4.362654  0.779187
  N    -4.305598  1.064672  0.892192
  N    -4.105593  4.732758  0.587717
  N    -6.609018  0.727409 -0.258859
  N    -6.332080  4.058044 -0.522403
  N    -7.213314  0.994419  3.544392
  N    -6.992535  5.164965  3.103652
  S    -8.024158  0.685583  2.124797
  S    -7.757286  4.486253  1.794314
  S    -4.943594  0.753373 -0.636766
  S    -4.755866  4.338282 -0.908736
  S    -5.546265  1.288121  3.378873
  S    -5.291239  5.148168  3.118571
