16  
    
  C    -2.456996  2.441005  1.970231
  C    -2.446273  6.277392  2.130210
  C    -3.674920  1.999971  1.414376
  C    -3.543915  5.648930  1.427037
  N    -1.423666  2.517119  1.117145
  N    -1.318218  6.412898  1.348676
  N    -3.675249  1.882637  0.085005
  N    -3.263969  5.175198  0.199176
  N    -4.079875  2.421120  3.979734
  N    -4.200557  5.814780  3.969927
  S    -4.948715  2.015825  2.598336
  S    -4.910498  5.426690  2.511674
  S    -2.096867  2.178597 -0.408593
  S    -1.726094  5.665429 -0.052175
  S    -2.491247  2.937494  3.651509
  S    -2.606279  6.292976  3.820630
