16  
    
  C     2.880692  5.140507  3.178284
  C     2.930354  9.164753  3.659556
  C     1.715086  4.407227  2.650670
  C     1.888846  8.412056  2.998970
  N     3.888400  5.297033  2.352453
  N     3.916601  9.589817  2.839944
  N     1.810390  4.234820  1.334228
  N     2.042328  8.339404  1.704181
  N     1.257624  5.009423  5.092729
  N     1.096247  8.645834  5.481016
  S     0.458271  4.174846  3.805555
  S     0.482334  8.158935  3.947628
  S     3.313384  4.851193  0.888117
  S     3.455803  9.014998  1.328202
  S     2.844923  5.471703  4.853162
  S     2.615643  9.379429  5.439042
