16  
    
  C     2.865266  5.036997  3.619984
  C     2.998612  8.628170  3.572553
  C     1.612999  4.971232  2.945458
  C     1.780738  8.311567  2.814757
  N     3.943655  4.915737  2.856013
  N     4.045860  8.670645  2.778884
  N     1.710334  4.791058  1.621328
  N     1.882559  8.230785  1.530367
  N     1.174652  5.359503  5.560730
  N     1.075838  8.719975  5.211290
  S     0.328342  5.143454  4.124006
  S     0.398786  8.398850  3.774195
  S     3.349676  4.926433  1.275896
  S     3.510080  8.310795  1.169822
  S     2.843631  5.246534  5.318722
  S     2.653828  9.054660  5.229629
