16  
    
  C    -0.385408  3.398759  2.695627
  C    -0.325403  6.999717  2.462839
  C    -1.445126  2.604375  2.064150
  C    -1.460537  6.420005  1.868931
  N     0.711695  3.556413  1.967615
  N     0.761484  7.196069  1.735459
  N    -1.166615  2.222182  0.828988
  N    -1.262646  5.988642  0.624003
  N    -2.258352  3.062231  4.435880
  N    -2.173275  7.025236  4.369575
  S    -2.797533  2.306785  3.073670
  S    -2.834235  6.243988  3.055238
  S     0.306509  2.858108  0.461844
  S     0.286621  6.490705  0.214423
  S    -0.743821  3.708833  4.436967
  S    -0.586828  7.478028  4.161751
