16  
    
  C     2.070165  4.265417  3.356826
  C     1.717278  7.733802  3.060880
  C     0.781528  4.028421  2.714614
  C     0.430174  7.516053  2.386687
  N     3.012092  4.756444  2.521214
  N     2.736591  7.914893  2.238358
  N     0.842279  4.116189  1.382358
  N     0.514569  7.528654  1.059096
  N     0.260611  3.997191  5.184788
  N    -0.082754  7.469669  4.879583
  S    -0.614139  3.680578  3.820653
  S    -0.940907  7.287577  3.482099
  S     2.344883  4.541297  1.020692
  S     2.109147  7.809754  0.678984
  S     1.849243  4.352306  5.102868
  S     1.541476  7.632016  4.761867
