16  
    
  C     0.440465  3.823758  2.838160
  C     0.823535  7.606775  2.649430
  C    -0.533870  3.010439  2.103383
  C    -0.393246  7.136865  1.986830
  N     1.568848  3.980094  2.136334
  N     1.755175  8.044553  1.802880
  N    -0.244590  2.922765  0.804775
  N    -0.266067  7.251853  0.670343
  N    -1.388672  3.201593  4.544808
  N    -0.711079  6.813317  4.513724
  S    -1.990852  2.670053  3.022291
  S    -1.508827  6.490307  3.113906
  S     1.176181  3.639284  0.586682
  S     1.244085  7.840176  0.267071
  S     0.155848  3.728001  4.579938
  S     0.752797  7.503288  4.340338
