16  
    
  C     3.139765  5.123269  3.490255
  C     3.531412  8.935597  3.784857
  C     1.924464  4.719321  2.812262
  C     2.244802  8.827229  3.086351
  N     4.201551  5.022768  2.720973
  N     4.538992  8.774667  2.925123
  N     2.045532  4.638057  1.467560
  N     2.324019  8.642912  1.796324
  N     1.400663  5.144919  5.255209
  N     1.644942  9.183370  5.512271
  S     0.533668  4.745544  3.906978
  S     0.797544  8.986938  4.103731
  S     3.662212  4.675680  1.198291
  S     3.889044  8.682180  1.417973
  S     3.090209  5.222994  5.196106
  S     3.266136  9.259706  5.473644
