16  
    
  C    -1.180912  2.950868  2.273637
  C    -0.964798  6.980933  2.412022
  C    -2.507545  2.855676  1.708234
  C    -2.248807  6.647532  1.846995
  N    -0.168359  3.004688  1.394954
  N    -0.015593  7.075364  1.480647
  N    -2.502426  2.763783  0.379274
  N    -2.236031  6.414786  0.559361
  N    -2.888269  3.150079  4.256741
  N    -2.593646  6.697229  4.444647
  S    -3.751316  2.747038  2.874894
  S    -3.483872  6.562598  3.001101
  S    -0.918418  2.874959 -0.089238
  S    -0.693749  6.861256 -0.021728
  S    -1.225888  3.294412  3.984630
  S    -0.987249  6.989055  4.192965
