16  
    
  C    -3.869165  1.501312  1.682711
  C    -4.018762  5.368087  1.901044
  C    -5.127623  1.316820  1.104828
  C    -5.205818  5.186856  1.111969
  N    -2.806262  1.590530  0.852154
  N    -2.953070  5.801664  1.236770
  N    -5.029344  1.104118 -0.198996
  N    -5.034910  5.249185 -0.213163
  N    -5.648237  1.511510  3.637967
  N    -5.854872  4.959878  3.606431
  S    -6.517021  1.372868  2.269266
  S    -6.582408  4.746321  2.175205
  S    -3.477481  1.329837 -0.697398
  S    -3.417803  5.692513 -0.412232
  S    -4.017613  1.703889  3.472815
  S    -4.214848  5.067664  3.597640
