16  
    
  C    -4.136675  1.459906  1.906165
  C    -3.943210  5.213580  1.954391
  C    -5.459722  1.170023  1.328685
  C    -5.142714  4.693702  1.385950
  N    -3.105547  1.481035  1.085572
  N    -2.868197  5.144345  1.172045
  N    -5.324945  0.939035  0.043458
  N    -5.095286  4.323627  0.118439
  N    -5.827104  1.407059  3.854558
  N    -5.653520  5.367967  3.806989
  S    -6.707330  0.990602  2.466536
  S    -6.451321  4.717486  2.517005
  S    -3.815961  1.112394 -0.385656
  S    -3.479981  4.459857 -0.235051
  S    -4.216895  1.774797  3.581889
  S    -4.086532  5.731795  3.583428
