16  
    
  C    -3.546535  1.561020  2.095485
  C    -3.251557  5.330516  2.070307
  C    -4.758097  1.165688  1.338099
  C    -4.526108  4.978980  1.503598
  N    -2.406258  1.705326  1.400531
  N    -2.227182  5.402365  1.205944
  N    -4.445481  0.756910  0.100468
  N    -4.518034  4.796353  0.209136
  N    -5.462039  1.411116  3.897649
  N    -5.005621  5.388973  4.018376
  S    -6.129678  1.050851  2.376512
  S    -5.845047  4.946593  2.622631
  S    -2.834383  1.176774 -0.171668
  S    -2.963876  4.997442 -0.240349
  S    -3.827729  1.921492  3.804274
  S    -3.397665  5.685691  3.703018
