16  
    
  C    -0.593587  3.237208  2.849985
  C    -1.286398  6.603113  2.647866
  C    -1.844812  2.850115  2.159295
  C    -2.419521  6.136967  1.864762
  N     0.423710  3.196781  2.017680
  N    -0.196051  6.930682  2.006521
  N    -1.701519  2.390770  0.922275
  N    -2.111592  6.058704  0.599565
  N    -2.413088  3.144037  4.713771
  N    -3.136279  6.103960  4.246500
  S    -3.175429  2.769329  3.245126
  S    -3.825733  5.693274  2.763906
  S    -0.140708  2.731603  0.526832
  S    -0.553307  6.588070  0.426677
  S    -0.786963  3.589278  4.528470
  S    -1.601374  6.709314  4.308919
