16  
    
  C    -5.550861  0.787826  1.495145
  C    -5.495703  4.681304  1.260435
  C    -6.811425  0.463766  0.868941
  C    -6.702622  4.245809  0.679179
  N    -4.500422  0.901013  0.721603
  N    -4.608943  4.986696  0.340854
  N    -6.639664  0.250689 -0.416556
  N    -6.701328  4.090287 -0.624693
  N    -7.414361  0.713391  3.335204
  N    -7.037076  4.286014  3.215875
  S    -8.123874  0.262478  1.871959
  S    -7.941368  3.995005  1.841128
  S    -5.076121  0.597801 -0.821701
  S    -5.203736  4.648095 -1.177788
  S    -5.776401  1.063636  3.178001
  S    -5.563573  5.054523  2.997439
