16  
    
  C    -2.595186  2.116342  1.996177
  C    -2.440212  5.764096  2.143871
  C    -3.846621  1.730918  1.378884
  C    -3.650446  5.402362  1.390506
  N    -1.545256  2.158499  1.187816
  N    -1.367562  5.861654  1.406695
  N    -3.726467  1.658395  0.060140
  N    -3.443204  5.137727  0.098920
  N    -4.335932  2.183223  3.913857
  N    -4.484641  5.967590  3.808179
  S    -5.196108  2.052899  2.470319
  S    -5.120474  5.265149  2.401483
  S    -2.129369  1.877164 -0.344876
  S    -1.865377  5.330591 -0.196591
  S    -2.645516  2.372581  3.734744
  S    -2.833093  6.030751  3.819748
