16  
    
  C    -6.056228  0.792677  1.368501
  C    -6.074761  4.366175  1.739981
  C    -7.209752  0.192015  0.707695
  C    -7.188793  3.866678  1.029800
  N    -5.129583  1.200295  0.491842
  N    -5.017306  4.737390  0.999030
  N    -7.218982  0.192920 -0.636353
  N    -7.116804  3.891952 -0.300698
  N    -7.657057  0.256960  3.275834
  N    -7.753402  3.646588  3.546731
  S    -8.543332 -0.107344  1.909860
  S    -8.507576  3.431249  2.077731
  S    -5.800718  0.953147 -1.023657
  S    -5.578998  4.451379 -0.540690
  S    -6.132110  0.834226  3.127190
  S    -6.289265  4.428780  3.472535
