16  
    
  C    -4.346426  1.449991  1.932415
  C    -4.625630  4.926215  1.707817
  C    -5.638949  0.977443  1.412629
  C    -5.746742  4.404971  0.981422
  N    -3.432542  1.812581  1.048510
  N    -3.618496  5.290634  0.942138
  N    -5.595600  0.788853  0.112849
  N    -5.570218  4.330565 -0.324730
  N    -5.902358  0.967091  3.889630
  N    -6.456816  4.618907  3.436030
  S    -6.778045  0.576798  2.574021
  S    -7.012211  3.861048  2.074361
  S    -4.079412  1.357089 -0.436294
  S    -4.065864  4.976110 -0.606325
  S    -4.461188  1.647351  3.641606
  S    -4.857619  5.032630  3.413752
