16  
    
  C     0.951591  4.121084  2.694430
  C     1.097877  7.573305  3.030379
  C    -0.239734  3.425676  2.378764
  C    -0.140315  7.149473  2.472438
  N     1.986691  3.938975  1.823565
  N     2.181496  7.648299  2.254085
  N    -0.263476  3.004314  1.118470
  N    -0.054050  6.884737  1.166582
  N    -0.702293  4.227203  4.697173
  N    -0.596123  7.398237  5.062319
  S    -1.515528  3.380602  3.536180
  S    -1.513073  7.093591  3.679527
  S     1.256240  3.255109  0.492173
  S     1.537769  7.135171  0.781366
  S     0.916729  4.515974  4.375307
  S     0.944386  8.006718  4.786331
