16  
    
  C     3.156565  5.149749  3.434450
  C     3.226552  8.867560  3.731374
  C     1.879659  4.808743  2.808327
  C     1.844160  8.690014  3.306495
  N     4.156534  5.177551  2.563618
  N     4.143735  8.603841  2.824690
  N     1.881369  4.626885  1.518438
  N     1.703061  8.224954  2.094927
  N     1.344867  5.020927  5.240826
  N     1.652391  9.365259  5.689765
  S     0.604452  4.535452  3.862116
  S     0.648906  8.888360  4.516642
  S     3.496240  4.677101  1.112968
  S     3.265247  8.242035  1.436664
  S     2.980957  5.210746  5.142519
  S     3.261377  9.432927  5.409137
