16  
    
  C     0.068046  3.622912  2.637486
  C     0.335400  7.527066  2.678196
  C    -1.011802  2.942720  2.070029
  C    -0.915162  7.303723  1.992143
  N     1.088507  3.822104  1.816112
  N     1.337630  7.625275  1.804812
  N    -0.957683  2.791344  0.756999
  N    -0.823350  7.022562  0.699297
  N    -1.763932  3.372460  4.456972
  N    -1.474658  7.179549  4.560733
  S    -2.365911  2.529261  3.083512
  S    -2.294520  7.084878  3.078185
  S     0.611697  3.208204  0.324437
  S     0.782138  7.373260  0.271091
  S    -0.288190  4.013886  4.281511
  S     0.147316  7.455180  4.433248
