16  
    
  C    -1.779839  2.549889  2.462148
  C    -1.772808  6.059695  2.405531
  C    -3.025936  2.327001  1.739216
  C    -2.893201  5.552126  1.681667
  N    -0.752561  2.580469  1.633452
  N    -0.681972  6.274439  1.631889
  N    -2.936421  2.146630  0.407831
  N    -2.621357  5.377604  0.347433
  N    -3.608180  2.370023  4.268497
  N    -3.648238  5.770987  4.169449
  S    -4.367272  2.074363  2.817094
  S    -4.299716  5.357269  2.737367
  S    -1.300906  2.393438  0.053653
  S    -1.098365  5.929018  0.078473
  S    -1.957888  2.586398  4.180279
  S    -2.033497  6.003674  4.120968
