16  
    
  C     0.212787  3.548876  2.294791
  C     0.238853  7.504278  2.901510
  C    -1.080966  3.282438  1.710350
  C    -0.877816  6.785840  2.231295
  N     1.207279  3.605557  1.445911
  N     1.276381  7.731856  2.079315
  N    -1.076923  3.219167  0.403831
  N    -0.635532  6.334898  1.000308
  N    -1.575858  3.302982  4.264070
  N    -1.530460  7.199734  4.675378
  S    -2.409082  2.996361  2.812797
  S    -2.230030  6.597069  3.274704
  S     0.429619  3.528365 -0.072445
  S     0.822677  6.959376  0.646122
  S     0.087803  3.529447  4.051979
  S    -0.007728  7.904381  4.547088
