16  
    
  C    -1.918113  2.546527  2.644919
  C    -1.671253  5.938752  2.309625
  C    -3.088693  2.022288  1.912838
  C    -2.980138  5.627833  1.717326
  N    -0.874687  2.686023  1.853591
  N    -0.697788  6.099832  1.460232
  N    -2.904238  1.790650  0.614915
  N    -2.889841  5.533555  0.418177
  N    -3.749347  2.099299  4.419248
  N    -3.489722  5.687233  4.230796
  S    -4.427978  1.725730  2.948023
  S    -4.292105  5.462159  2.812951
  S    -1.311662  2.297690  0.309719
  S    -1.364122  6.000011 -0.104135
  S    -2.132596  2.430882  4.356947
  S    -1.888356  5.817863  4.026183
