16  
    
  C    -3.539600  1.567514  2.115431
  C    -3.266254  5.307941  2.052447
  C    -4.723538  1.170812  1.352678
  C    -4.523071  4.997646  1.512118
  N    -2.401730  1.648337  1.402607
  N    -2.241184  5.432197  1.195263
  N    -4.457543  0.767096  0.094280
  N    -4.519121  4.821902  0.184857
  N    -5.414258  1.402603  3.885555
  N    -4.971602  5.396489  4.017938
  S    -6.142989  1.074526  2.375056
  S    -5.830950  4.949713  2.614884
  S    -2.850330  1.154805 -0.162048
  S    -2.912079  5.006941 -0.240272
  S    -3.774974  1.914684  3.827459
  S    -3.392483  5.681846  3.719894
