16  
    
  C     3.212031  4.907502  3.572843
  C     3.489888  8.952706  3.713633
  C     1.895007  4.704266  2.935552
  C     2.166331  8.851636  3.217503
  N     4.161927  5.106223  2.666384
  N     4.400656  8.625419  2.758502
  N     1.927856  4.425495  1.630461
  N     1.957060  8.367022  2.003923
  N     1.409238  5.016273  5.382796
  N     1.751576  9.296155  5.680232
  S     0.579823  4.696963  3.975305
  S     0.827291  9.070111  4.293968
  S     3.512391  4.686437  1.171609
  S     3.494183  8.228632  1.386509
  S     3.067854  5.398344  5.222228
  S     3.440779  9.179636  5.430811
