16  
    
  C    -5.425818  1.127897  1.638081
  C    -5.174973  4.771735  1.410881
  C    -6.711821  1.009363  0.974582
  C    -6.432334  4.466357  0.799494
  N    -4.385168  1.128229  0.806606
  N    -4.176125  4.740660  0.564820
  N    -6.548569  0.779703 -0.312679
  N    -6.317568  4.088410 -0.450747
  N    -7.211751  1.039328  3.582142
  N    -6.928593  5.145905  3.220148
  S    -7.976469  0.738279  2.112664
  S    -7.754998  4.450565  1.899614
  S    -4.987788  0.732796 -0.665811
  S    -4.708192  4.234013 -0.911432
  S    -5.592997  1.256897  3.387017
  S    -5.282105  5.084445  3.122154
