16  
    
  C    -2.789496  2.686992  2.333836
  C    -2.692629  5.916110  1.995840
  C    -3.813861  1.909420  1.735250
  C    -3.846373  5.529001  1.239656
  N    -1.805713  3.020781  1.494713
  N    -1.652723  6.168773  1.234725
  N    -3.743715  1.830670  0.379514
  N    -3.676052  5.482036 -0.084479
  N    -4.383840  2.076881  4.269577
  N    -4.521095  5.412778  3.803802
  S    -4.999406  1.357150  2.856607
  S    -5.202135  5.121081  2.312628
  S    -2.237415  2.479017  0.034882
  S    -2.126330  6.129878 -0.363276
  S    -2.845856  2.737680  4.086571
  S    -3.000133  6.122716  3.664250
