16  
    
  C    -4.554993  1.050374  1.551926
  C    -4.823024  4.675938  1.641748
  C    -5.850049  0.881363  0.923212
  C    -6.075715  4.375797  0.906706
  N    -3.487554  1.219630  0.777842
  N    -3.783474  4.833721  0.835958
  N    -5.748588  0.858874 -0.409581
  N    -5.976818  4.395235 -0.432427
  N    -6.342763  0.728140  3.348609
  N    -6.612596  4.214175  3.379055
  S    -7.205444  0.583298  1.960013
  S    -7.405310  4.066220  1.930386
  S    -4.146401  1.002761 -0.728875
  S    -4.392622  4.724824 -0.694481
  S    -4.699641  0.932840  3.292516
  S    -4.944982  4.525623  3.380566
