16  
    
  C     0.962975  3.940676  2.836442
  C     1.092598  7.640404  3.113909
  C    -0.374146  3.535139  2.295808
  C    -0.133208  7.110648  2.498362
  N     1.963327  3.908769  1.939715
  N     2.110831  7.642662  2.255802
  N    -0.315698  2.983470  1.082516
  N     0.001163  6.847195  1.195294
  N    -0.648578  4.118452  4.832882
  N    -0.622350  7.423386  4.978058
  S    -1.563331  3.349045  3.591887
  S    -1.475903  7.068367  3.574568
  S     1.218243  3.291852  0.500499
  S     1.577465  7.084939  0.753667
  S     0.922906  4.412615  4.477788
  S     0.966757  8.008740  4.757500
