16  
    
  C     3.058855  5.270091  3.425242
  C     3.357591  9.052879  3.450204
  C     1.937062  4.621948  2.730984
  C     2.079825  8.707908  2.865716
  N     4.095589  5.503812  2.623970
  N     4.285481  9.187361  2.541486
  N     2.141983  4.269743  1.508128
  N     2.047335  8.453056  1.569795
  N     1.229147  4.806928  5.166849
  N     1.774491  8.867183  5.472302
  S     0.608693  4.235662  3.720820
  S     0.849278  8.612237  4.116052
  S     3.584887  4.924581  1.103342
  S     3.658699  8.600074  1.117889
  S     2.736285  5.473791  5.058757
  S     3.384758  9.251468  5.178157
