16  
    
  C    -4.077586  1.428875  1.685143
  C    -4.083498  5.219499  1.949150
  C    -5.348912  1.234482  1.001376
  C    -5.377174  5.065364  1.245661
  N    -2.966460  1.279680  0.935272
  N    -3.047206  5.262510  1.105471
  N    -5.206798  1.138140 -0.317964
  N    -5.273676  5.166543 -0.090860
  N    -5.922006  1.576706  3.572943
  N    -5.910166  4.822530  3.819641
  S    -6.721678  1.324091  2.116165
  S    -6.659462  4.923057  2.334142
  S    -3.551646  1.123068 -0.692921
  S    -3.634671  5.290995 -0.397623
  S    -4.265557  1.676033  3.374560
  S    -4.280161  5.262229  3.693302
