16  
    
  C     1.909751  4.591302  3.305849
  C     1.659502  7.664997  3.078690
  C     0.759478  3.975028  2.641474
  C     0.423663  7.374435  2.344159
  N     2.936596  4.844834  2.501496
  N     2.708261  7.929143  2.278861
  N     0.913816  3.918623  1.318029
  N     0.492064  7.406759  1.005308
  N     0.337663  4.011566  5.261157
  N    -0.210031  7.535099  4.846839
  S    -0.449017  3.716661  3.803225
  S    -0.956550  7.390669  3.360240
  S     2.382630  4.617534  0.981886
  S     2.119130  7.756701  0.739948
  S     1.904592  4.464962  5.065595
  S     1.454402  7.683764  4.811340
