16  
    
  C    -1.496607  3.031959  2.051029
  C    -0.980355  7.102245  2.359968
  C    -2.604290  2.365379  1.333428
  C    -2.292404  6.672067  1.813897
  N    -0.585081  3.479885  1.168066
  N     0.013722  7.076853  1.446834
  N    -2.394173  2.108104  0.016578
  N    -2.266439  6.354658  0.508315
  N    -3.254501  2.628776  3.801481
  N    -2.646871  6.627511  4.335778
  S    -3.885941  1.920994  2.437603
  S    -3.594892  6.691337  2.955040
  S    -0.943271  2.887441 -0.327510
  S    -0.776624  6.729887 -0.021650
  S    -1.806478  3.423767  3.707942
  S    -1.046107  7.113682  4.123001
