16  
    
  C    -0.052907  3.347707  2.615993
  C    -0.033167  6.989956  2.583751
  C    -1.149998  2.587502  1.957623
  C    -1.279543  6.598169  1.878506
  N     0.924417  3.717325  1.780566
  N     0.897751  7.445220  1.774850
  N    -0.896422  2.266519  0.698751
  N    -1.171591  6.689550  0.568304
  N    -1.932483  2.844168  4.360970
  N    -1.815247  6.504700  4.410120
  S    -2.541726  2.316023  2.920999
  S    -2.558470  6.257795  2.977671
  S     0.453219  3.147950  0.252427
  S     0.389158  7.202590  0.174583
  S    -0.373215  3.500389  4.315729
  S    -0.210271  6.933707  4.310821
