16  
    
  C    -1.506315  2.826834  2.115810
  C    -1.258670  6.703490  2.197847
  C    -2.552089  1.989925  1.476610
  C    -2.567367  6.341594  1.647855
  N    -0.486526  3.108102  1.342701
  N    -0.322391  6.773941  1.267619
  N    -2.242059  1.632403  0.258942
  N    -2.491664  6.112252  0.329448
  N    -3.392384  2.454707  3.856484
  N    -2.890531  6.547932  4.208609
  S    -3.929153  1.646049  2.496059
  S    -3.797608  6.226693  2.803915
  S    -0.815415  2.399735 -0.153736
  S    -0.930823  6.312787 -0.189535
  S    -1.831547  3.021420  3.820002
  S    -1.307763  7.062270  3.953182
