16  
    
  C    -5.080321  1.156373  1.803109
  C    -5.031905  4.895839  1.510113
  C    -6.254349  0.645137  1.161362
  C    -6.167393  4.308547  0.815645
  N    -4.064926  1.399703  0.939101
  N    -3.972976  5.071039  0.742609
  N    -6.044459  0.276545 -0.109093
  N    -5.941280  4.080227 -0.470088
  N    -6.906821  0.925948  3.608318
  N    -6.867410  4.596417  3.278337
  S    -7.575761  0.254360  2.287058
  S    -7.471971  3.988772  1.851433
  S    -4.444710  0.670047 -0.493785
  S    -4.338730  4.542713 -0.795604
  S    -5.348764  1.415547  3.464203
  S    -5.311489  5.270191  3.176882
