16  
    
  C    -4.327854  1.765372  1.916807
  C    -4.362294  5.199660  1.756341
  C    -5.471734  1.087988  1.294187
  C    -5.597749  4.770127  1.217856
  N    -3.204555  1.711186  1.204669
  N    -3.384539  5.243729  0.844300
  N    -5.216293  0.704850  0.036574
  N    -5.611662  4.552063 -0.076492
  N    -6.065096  1.480877  3.691136
  N    -6.098547  5.134693  3.661064
  S    -6.832541  0.987045  2.253721
  S    -6.956875  4.650435  2.234047
  S    -3.621138  0.976247 -0.257976
  S    -4.072915  4.835175 -0.605942
  S    -4.501879  2.145668  3.600985
  S    -4.426761  5.638622  3.432415
