16  
    
  C    -4.419274  0.921403  1.729916
  C    -4.749801  4.541368  1.559398
  C    -5.682370  0.637098  1.068249
  C    -5.935273  4.202465  0.784670
  N    -3.425032  1.278129  0.924410
  N    -3.713731  4.996489  0.857613
  N    -5.632758  0.768601 -0.275382
  N    -5.812394  4.514452 -0.527190
  N    -6.200826  0.655795  3.606036
  N    -6.610893  4.283137  3.321681
  S    -7.100561  0.477116  2.196505
  S    -7.348638  3.890212  1.883740
  S    -4.079955  1.292429 -0.598813
  S    -4.237570  4.992035 -0.726682
  S    -4.627915  1.067923  3.473129
  S    -4.974907  4.451198  3.339071
