16  
    
  C     0.897802  3.932747  2.491017
  C     1.572382  8.230631  3.275035
  C    -0.377577  3.485250  1.874070
  C     0.277530  7.996411  2.627716
  N     1.846959  4.228079  1.620134
  N     2.550993  8.342703  2.355802
  N    -0.185093  3.113121  0.621079
  N     0.282106  7.971201  1.298402
  N    -0.872809  3.741242  4.377158
  N    -0.239862  8.154162  5.149340
  S    -1.592193  3.146054  3.022027
  S    -1.072475  7.975197  3.754724
  S     1.333341  3.654999  0.195172
  S     1.915302  8.216701  0.853639
  S     0.747942  4.178217  4.156232
  S     1.405990  8.192824  5.030957
