16  
    
  C     0.990031  4.193891  2.559275
  C     1.103351  7.677024  3.157218
  C    -0.106137  3.379536  2.200289
  C    -0.133866  7.375518  2.577929
  N     2.072644  4.143999  1.760304
  N     2.096409  7.805275  2.262974
  N     0.084814  2.883859  0.979375
  N    -0.116543  7.165605  1.266748
  N    -0.746716  4.334620  4.489111
  N    -0.609259  7.575126  5.021943
  S    -1.492029  3.392723  3.314957
  S    -1.502499  7.246752  3.673621
  S     1.522814  3.406472  0.399356
  S     1.478154  7.394987  0.807539
  S     0.815258  4.757114  4.193743
  S     1.003577  8.039474  4.874896
