16  
    
  C    -4.397910  1.399470  1.931333
  C    -4.667893  4.737770  1.661355
  C    -5.614079  0.878692  1.312146
  C    -5.793468  4.376644  0.807398
  N    -3.514095  1.795158  1.047282
  N    -3.632783  5.233154  0.965809
  N    -5.559649  0.752085 -0.013478
  N    -5.519340  4.506422 -0.505130
  N    -6.090037  0.820521  3.815884
  N    -6.459420  3.852379  3.330245
  S    -6.838954  0.245959  2.466437
  S    -7.141701  3.748132  1.794499
  S    -4.010744  1.374580 -0.522323
  S    -3.920015  5.040110 -0.653006
  S    -4.491234  1.217748  3.671981
  S    -4.936984  4.650153  3.386133
