16  
    
  C    -6.157699  0.920199  1.404077
  C    -6.106983  4.456325  1.826113
  C    -7.275687  0.169138  0.857750
  C    -7.245892  3.960698  1.115475
  N    -5.253296  1.318916  0.535944
  N    -5.028083  4.676879  1.113008
  N    -7.326148  0.126418 -0.451406
  N    -7.094145  3.944755 -0.184129
  N    -7.562241  0.248416  3.363311
  N    -8.033013  3.962046  3.557723
  S    -8.336280 -0.386128  2.044021
  S    -8.639264  3.582009  2.072665
  S    -5.893802  0.854302 -0.960726
  S    -5.509115  4.406120 -0.461428
  S    -6.059316  0.945798  3.163374
  S    -6.432045  4.424773  3.523427
