16  
    
  C     3.204692  4.980566  3.470656
  C     3.316902  9.209950  3.745687
  C     1.987324  4.584670  2.779968
  C     2.165661  8.856817  2.962008
  N     4.255110  5.135867  2.680953
  N     4.511530  9.211332  3.099014
  N     2.083577  4.557086  1.469820
  N     2.486823  8.623668  1.655730
  N     1.376823  5.153360  5.214347
  N     1.410982  8.959696  5.487203
  S     0.587292  4.625507  3.802560
  S     0.676740  8.793274  4.007029
  S     3.730493  4.790988  1.110070
  S     4.127194  9.008203  1.501913
  S     3.036205  5.232979  5.179985
  S     3.119074  9.245872  5.411830
