16  
    
  C     3.101366  5.141136  3.404093
  C     3.380959  9.083505  3.476672
  C     1.970120  4.541854  2.750877
  C     2.095780  8.712469  3.003890
  N     4.065399  5.532386  2.584050
  N     4.360467  9.056710  2.537966
  N     2.164091  4.289157  1.456397
  N     2.101855  8.430812  1.673957
  N     1.158838  4.955014  5.110566
  N     1.627130  8.808796  5.510584
  S     0.615076  4.176344  3.722152
  S     0.808168  8.610590  4.061613
  S     3.614120  4.953063  1.113188
  S     3.579861  8.673523  1.099300
  S     2.768433  5.438884  5.118899
  S     3.266801  9.279130  5.277803
