16  
    
  C    -1.937603  2.578739  2.653012
  C    -1.682805  5.886273  2.307546
  C    -3.050973  1.997002  1.913483
  C    -2.949962  5.658367  1.698508
  N    -0.890379  2.676903  1.876700
  N    -0.694906  6.108347  1.463440
  N    -2.905715  1.782568  0.614348
  N    -2.889476  5.572584  0.389146
  N    -3.738271  2.101211  4.417819
  N    -3.515468  5.683997  4.223353
  S    -4.440386  1.755776  2.944242
  S    -4.278203  5.450969  2.784505
  S    -1.330514  2.318392  0.304506
  S    -1.348576  5.971580 -0.078502
  S    -2.125686  2.414277  4.368545
  S    -1.887477  5.802889  4.034207
