16  
    
  C    -0.415009  3.260278  2.699540
  C    -0.306083  7.041651  2.506069
  C    -1.505110  2.535114  2.054709
  C    -1.534064  6.344509  1.957876
  N     0.699063  3.453859  1.949170
  N     0.703262  7.168892  1.633604
  N    -1.374429  2.521264  0.718049
  N    -1.364894  5.896694  0.718730
  N    -2.178198  2.994479  4.542217
  N    -2.051102  6.935258  4.340381
  S    -2.853746  2.364506  3.147041
  S    -2.693074  6.025657  3.094981
  S     0.231688  2.903411  0.424672
  S     0.092255  6.397312  0.239534
  S    -0.646136  3.662302  4.388555
  S    -0.488803  7.532525  4.135104
