16  
    
  C    -1.493035  2.979389  2.026486
  C    -0.987136  7.008840  2.303758
  C    -2.579303  2.315258  1.336411
  C    -2.265568  6.618643  1.787817
  N    -0.588382  3.407158  1.182669
  N     0.022839  7.134247  1.391141
  N    -2.395862  2.145622  0.038581
  N    -2.302125  6.327247  0.490137
  N    -3.280674  2.593430  3.801840
  N    -2.697097  6.674687  4.378756
  S    -3.874553  1.867671  2.439996
  S    -3.580341  6.680756  2.960679
  S    -0.942008  2.824099 -0.330813
  S    -0.778031  6.706428 -0.063675
  S    -1.849022  3.407407  3.689460
  S    -1.078888  7.116177  4.097014
