16  
    
  C    -1.805373  2.481065  2.450583
  C    -1.743371  6.017856  2.389491
  C    -3.074331  2.390925  1.734082
  C    -2.903160  5.537528  1.682310
  N    -0.770123  2.603143  1.633805
  N    -0.634689  6.168402  1.686102
  N    -2.994873  2.227922  0.425765
  N    -2.636208  5.386449  0.423814
  N    -3.612040  2.370138  4.293644
  N    -3.661280  5.768479  4.122671
  S    -4.359294  2.034068  2.842794
  S    -4.307488  5.338207  2.677329
  S    -1.334092  2.381471  0.089815
  S    -1.111566  5.953381  0.087579
  S    -1.987845  2.553341  4.187115
  S    -2.024693  5.969015  4.062767
