16  
    
  C     3.464572  5.384855  3.573835
  C     3.457599  8.972631  3.488061
  C     2.255272  4.929675  2.941912
  C     2.350668  8.362103  2.816914
  N     4.568077  5.459588  2.807115
  N     4.479907  9.502639  2.750790
  N     2.369405  4.889843  1.639722
  N     2.547049  8.432249  1.479778
  N     1.798645  4.935933  5.400407
  N     1.804182  8.683413  5.365596
  S     0.932059  4.722598  4.009485
  S     1.039059  8.098702  4.042882
  S     3.902814  5.322851  1.256897
  S     4.083528  9.104102  1.186228
  S     3.439013  5.407665  5.296847
  S     3.294799  9.350584  5.196444
