16  
    
  C    -0.476400  3.194568  2.916390
  C    -1.115652  6.821718  2.770932
  C    -1.728231  2.875187  2.269591
  C    -2.213234  6.319928  1.877423
  N     0.577600  3.324938  2.125222
  N     0.009820  6.964890  2.094266
  N    -1.547510  2.666993  0.965532
  N    -1.846791  6.066522  0.643548
  N    -2.362104  3.402163  4.739164
  N    -3.111317  6.239084  4.254806
  S    -3.052402  2.717566  3.363136
  S    -3.664675  5.927812  2.729362
  S     0.047825  2.961631  0.616379
  S    -0.254281  6.603267  0.478954
  S    -0.713112  3.769132  4.562974
  S    -1.569705  6.816331  4.435964
