16  
    
  C    -1.843982  2.313768  2.651596
  C    -1.787722  5.876978  2.355796
  C    -3.027613  1.974809  1.950210
  C    -2.970561  5.649257  1.621419
  N    -0.906527  2.791231  1.817062
  N    -0.679600  5.978447  1.591312
  N    -2.951778  1.852058  0.615827
  N    -2.840849  5.780739  0.303463
  N    -3.731932  2.080765  4.397292
  N    -3.494371  5.610709  4.070861
  S    -4.514151  1.916397  2.929161
  S    -4.337521  5.366362  2.628742
  S    -1.395679  2.408346  0.287895
  S    -1.182055  5.859333  0.000678
  S    -2.084976  2.412254  4.338861
  S    -1.843611  5.819154  4.076000
