16  
    
  C    -3.724564  1.991319  1.812475
  C    -3.623400  5.548218  1.836224
  C    -4.652491  0.995410  1.275413
  C    -4.885310  5.162851  1.156731
  N    -2.674844  2.335431  1.033218
  N    -2.620456  5.661818  0.967987
  N    -4.417268  0.719921 -0.021535
  N    -4.795822  5.052954 -0.172541
  N    -5.420658  1.422725  3.712283
  N    -5.327347  5.431403  3.711169
  S    -5.967793  0.571380  2.415912
  S    -6.143054  4.959819  2.361186
  S    -2.972482  1.485019 -0.458890
  S    -3.196437  5.456387 -0.534899
  S    -4.006451  2.277053  3.567371
  S    -3.673363  5.753062  3.583658
