16  
    
  C    -2.655510  2.593499  2.191150
  C    -2.640533  6.323744  2.026157
  C    -3.746563  1.860929  1.657504
  C    -3.756497  5.759603  1.284980
  N    -1.674075  2.808533  1.318351
  N    -1.611811  6.649892  1.279206
  N    -3.685017  1.656879  0.336086
  N    -3.470968  5.543980 -0.039258
  N    -4.381405  2.354181  4.142272
  N    -4.542824  6.029057  3.713069
  S    -5.181433  1.754096  2.762899
  S    -5.061642  5.373961  2.302111
  S    -2.242205  2.342046 -0.126189
  S    -1.909358  6.162898 -0.288812
  S    -2.817456  2.856190  3.885193
  S    -2.951955  6.542022  3.709048
