16  
    
  C     2.203651  4.310621  3.012318
  C     2.046653  8.446111  3.121465
  C     1.021268  3.967674  2.245270
  C     0.943642  7.702158  2.613238
  N     3.231845  4.572131  2.208314
  N     3.005270  8.584359  2.232392
  N     1.284205  3.554344  0.967622
  N     1.117431  7.213257  1.396901
  N     0.275160  4.233062  4.807241
  N     0.217623  8.616119  4.914911
  S    -0.414645  3.900748  3.313699
  S    -0.465342  7.753232  3.640703
  S     2.832434  4.049204  0.705487
  S     2.584699  7.671372  0.858934
  S     1.994200  4.561672  4.745955
  S     1.781908  9.105985  4.697912
