16  
    
  C    -3.566557  2.010259  1.701128
  C    -4.028582  5.233144  1.618076
  C    -4.830190  1.546310  1.084758
  C    -5.187460  4.704072  1.008389
  N    -2.584229  2.338922  0.884656
  N    -3.006090  5.402435  0.791838
  N    -4.727375  1.353468 -0.211850
  N    -5.038922  4.357206 -0.276157
  N    -5.129167  1.339329  3.591319
  N    -5.614267  5.059375  3.567641
  S    -6.013841  1.022881  2.200329
  S    -6.394962  4.411627  2.216200
  S    -3.203240  1.813650 -0.647379
  S    -3.529283  4.963891 -0.653825
  S    -3.649760  2.168376  3.418413
  S    -4.092352  5.544834  3.355718
