16  
    
  C    -2.510666  2.439063  2.206057
  C    -2.634634  5.573309  2.121737
  C    -3.686515  2.000423  1.554855
  C    -3.863144  5.167364  1.439449
  N    -1.433938  2.516643  1.420444
  N    -1.687437  6.008128  1.264152
  N    -3.586169  1.859563  0.245822
  N    -3.815452  5.122600  0.083762
  N    -4.216850  1.853569  4.086295
  N    -4.373031  5.248423  3.929326
  S    -5.100940  1.738507  2.665297
  S    -5.177593  4.972595  2.489559
  S    -2.018706  2.173163 -0.165409
  S    -2.267097  5.657529 -0.225346
  S    -2.620728  2.369126  3.907283
  S    -2.773283  5.736605  3.829735
