16  
    
  C     1.823551  4.324126  3.107339
  C     1.957850  8.002889  3.117924
  C     0.535124  3.953333  2.499981
  C     0.775327  7.536933  2.457099
  N     2.870752  4.187123  2.310967
  N     2.925034  8.314689  2.234885
  N     0.643449  3.857009  1.180097
  N     0.850356  7.509115  1.124560
  N     0.212432  4.300838  5.060720
  N     0.161516  7.497331  4.962190
  S    -0.677406  4.017951  3.684712
  S    -0.525277  7.177533  3.485648
  S     2.259128  4.018172  0.778760
  S     2.364971  7.903068  0.710023
  S     1.854612  4.419212  4.846577
  S     1.787952  7.922494  4.884112
