16  
    
  C     0.142519  3.439812  2.333379
  C     0.277425  7.574919  2.839079
  C    -1.159974  3.386298  1.732058
  C    -0.781759  6.795891  2.323302
  N     1.118597  3.567694  1.427762
  N     1.255112  7.768720  1.975149
  N    -1.126387  3.181082  0.408463
  N    -0.674572  6.443060  1.056644
  N    -1.599557  3.396326  4.207869
  N    -1.498463  7.180061  4.647873
  S    -2.414621  3.018079  2.851024
  S    -2.161302  6.603371  3.252049
  S     0.455247  3.541488 -0.066524
  S     0.852163  6.919950  0.666297
  S     0.061800  3.637218  4.078480
  S     0.006766  7.926538  4.548633
