16  
    
  C     0.581076  3.967247  2.954167
  C     0.693659  7.453059  2.800210
  C    -0.560879  3.284715  2.380296
  C    -0.543189  6.906396  2.147957
  N     1.636967  3.989212  2.169639
  N     1.712044  7.725795  1.967958
  N    -0.391621  2.811693  1.180209
  N    -0.384282  6.642393  0.821564
  N    -1.133535  4.002377  4.822227
  N    -1.033901  7.280494  4.676474
  S    -1.836779  3.255269  3.490957
  S    -1.846824  6.744162  3.277301
  S     1.127719  3.356740  0.672565
  S     1.164143  7.207407  0.506954
  S     0.428119  4.376343  4.670716
  S     0.537687  7.838028  4.440048
