16  
    
  C    -3.822259  1.607510  1.785435
  C    -3.971748  5.502743  1.881684
  C    -5.118294  1.227802  1.115352
  C    -5.162388  5.152234  1.172431
  N    -2.809089  1.603086  0.936573
  N    -2.924931  5.874387  1.147416
  N    -5.071507  1.173442 -0.207557
  N    -4.974309  5.297092 -0.139079
  N    -5.552308  1.478838  3.662966
  N    -5.838322  4.831373  3.591066
  S    -6.451155  1.344399  2.241238
  S    -6.611070  4.712772  2.054240
  S    -3.462156  1.418377 -0.643513
  S    -3.390776  5.666492 -0.385609
  S    -3.919729  1.728275  3.486993
  S    -4.169717  5.118771  3.572653
