16  
    
  C    -5.810925  0.847181  1.593297
  C    -6.006127  4.575527  1.603285
  C    -6.916437  0.248767  0.943521
  C    -7.224699  4.158166  0.880788
  N    -4.866590  1.161227  0.719668
  N    -4.955480  4.710274  0.802434
  N    -6.828253  0.133191 -0.379502
  N    -7.073579  4.101670 -0.422175
  N    -7.621158  0.624721  3.442416
  N    -7.856162  4.135011  3.360829
  S    -8.278987 -0.046857  2.051642
  S    -8.612111  4.002684  1.860819
  S    -5.371877  0.769586 -0.780078
  S    -5.511099  4.439740 -0.743698
  S    -6.058896  1.017870  3.278531
  S    -6.286659  4.727036  3.337663
