16  
    
  C    -3.340184  1.648581  1.591162
  C    -3.754831  5.342483  1.637897
  C    -4.548180  1.156319  0.997815
  C    -5.034010  4.917514  1.060852
  N    -2.364249  1.895216  0.745018
  N    -2.801860  5.658220  0.736406
  N    -4.474799  0.854512 -0.302141
  N    -4.949064  4.832213 -0.257271
  N    -5.063646  1.461768  3.514496
  N    -5.567214  5.229905  3.541113
  S    -5.833956  0.944298  2.122249
  S    -6.355693  4.673121  2.220824
  S    -2.955335  1.402940 -0.759585
  S    -3.376178  5.243438 -0.742207
  S    -3.597060  2.163456  3.237487
  S    -3.933909  5.560060  3.328350
