16  
    
  C     0.611251  3.657396  3.179367
  C     1.082888  7.569440  2.713856
  C    -0.512379  3.344456  2.393759
  C    -0.051693  7.058770  2.021827
  N     1.617777  4.157128  2.446129
  N     2.200807  7.713806  1.999506
  N    -0.254565  3.235643  1.073598
  N     0.118205  6.852524  0.696726
  N    -1.200651  3.087297  4.856826
  N    -0.688088  7.152688  4.570422
  S    -1.820680  2.818500  3.305615
  S    -1.374190  6.674803  3.112233
  S     1.267858  3.860136  0.874582
  S     1.738395  7.295512  0.498711
  S     0.312714  3.692298  4.961507
  S     0.831644  7.808906  4.437131
