16  
    
  C     1.400481  4.517814  3.309828
  C     1.447845  8.030321  3.078821
  C     0.025346  4.225433  2.890033
  C     0.156536  7.866015  2.410198
  N     2.223855  4.810885  2.288269
  N     2.577572  7.936130  2.338072
  N     0.001209  3.922995  1.600157
  N     0.294233  7.656587  1.093314
  N    -0.072204  4.449271  5.425932
  N    -0.371746  8.017955  4.899087
  S    -1.114521  4.109560  4.155549
  S    -1.225630  7.927482  3.489841
  S     1.479594  4.298494  0.932226
  S     1.947372  7.668558  0.853927
  S     1.467665  4.663233  5.050395
  S     1.295586  8.111146  4.818264
