16  
    
  C     2.122029  4.927566  3.164921
  C     2.031153  8.919798  3.373381
  C     0.900758  4.470437  2.478041
  C     0.826826  8.476884  2.712333
  N     3.087053  5.283514  2.341030
  N     3.072437  9.038845  2.584573
  N     0.965675  4.450203  1.150662
  N     0.952956  8.173328  1.414686
  N     0.398157  4.382769  4.936598
  N     0.236435  8.593528  5.256311
  S    -0.434315  4.103040  3.559669
  S    -0.535541  8.192016  3.780188
  S     2.565351  4.895697  0.811333
  S     2.507576  8.627057  1.050348
  S     2.057953  4.706651  4.925028
  S     1.846670  8.929667  5.158030
