16  
    
  C     1.877358  4.259906  3.331154
  C     1.814426  7.822455  3.050951
  C     0.633256  3.954095  2.716231
  C     0.535440  7.550095  2.457084
  N     2.932496  4.341492  2.538697
  N     2.811075  7.996656  2.154049
  N     0.656321  4.235041  1.413498
  N     0.473784  7.599668  1.127350
  N     0.153717  3.926609  5.229226
  N     0.103316  7.308429  4.968820
  S    -0.730662  3.835392  3.808416
  S    -0.763163  7.090457  3.525679
  S     2.340103  4.273804  0.953650
  S     2.045341  7.962000  0.681101
  S     1.828158  4.239360  5.016990
  S     1.709755  7.722315  4.790058
