16  
    
  C     3.098337  5.030255  3.439918
  C     3.261032  8.708069  3.739090
  C     1.837835  4.655652  2.851202
  C     1.872312  8.573610  3.221756
  N     4.141506  5.086525  2.616412
  N     4.182216  8.641110  2.813437
  N     1.946050  4.331369  1.571509
  N     1.796192  8.267898  1.924694
  N     1.428126  5.002759  5.422565
  N     1.815899  9.386224  5.704356
  S     0.532068  4.633579  4.093224
  S     0.768782  9.079142  4.518601
  S     3.562480  4.740346  1.098632
  S     3.469453  8.186012  1.383244
  S     3.039008  5.333386  5.153089
  S     3.416535  9.305429  5.379239
