16  
    
  C    -0.772339  2.966351  2.516259
  C    -1.198428  6.480704  2.499741
  C    -1.997995  2.478662  1.909343
  C    -2.363421  5.946710  1.806320
  N     0.308937  2.982477  1.721972
  N    -0.201189  6.844077  1.688482
  N    -1.855393  2.501114  0.568912
  N    -2.183298  5.821371  0.466116
  N    -2.482638  2.844802  4.342251
  N    -2.951886  5.970321  4.408434
  S    -3.307809  2.428068  3.014685
  S    -3.691086  5.620397  2.949269
  S    -0.257621  2.709036  0.209596
  S    -0.524958  6.273597  0.146494
  S    -0.938198  3.277762  4.223629
  S    -1.427009  6.548423  4.221452
