16  
    
  C     0.516768  3.732530  2.942657
  C     0.564184  7.518096  2.893602
  C    -0.809161  3.437738  2.391015
  C    -0.593819  7.032705  2.140764
  N     1.501861  3.727501  2.038712
  N     1.635142  7.685598  2.167222
  N    -0.837930  3.565890  1.056577
  N    -0.303940  6.851991  0.878331
  N    -1.051333  3.599161  4.965439
  N    -1.381202  7.272078  4.558399
  S    -2.044742  3.288174  3.594681
  S    -2.032094  7.034585  3.080816
  S     0.754084  3.659538  0.566181
  S     1.326441  7.233408  0.564605
  S     0.516599  3.830783  4.654664
  S     0.168022  7.698461  4.552581
