16  
    
  C    -0.749234  2.931177  2.489046
  C    -1.073135  6.457656  2.481179
  C    -2.051500  2.697427  1.838895
  C    -2.268064  5.939380  1.836267
  N     0.318049  3.003197  1.684719
  N     0.016750  6.649428  1.715212
  N    -1.872507  2.374900  0.540000
  N    -2.064944  5.823669  0.509786
  N    -2.483816  2.745503  4.425229
  N    -2.936513  6.113268  4.275991
  S    -3.295452  2.418957  2.975967
  S    -3.620866  5.610815  2.858064
  S    -0.282882  2.769529  0.141043
  S    -0.519977  6.246181  0.187177
  S    -0.865474  3.273566  4.163632
  S    -1.322756  6.597010  4.236217
