16  
    
  C     1.437126  4.528183  3.356707
  C     1.391307  7.973304  3.127302
  C     0.081600  4.102871  2.902753
  C     0.145377  7.844189  2.442657
  N     2.396958  4.523378  2.449247
  N     2.451273  7.982207  2.339040
  N     0.044032  3.923257  1.569843
  N     0.309621  7.745048  1.125065
  N    -0.103472  4.618863  5.456618
  N    -0.441723  7.950851  4.944791
  S    -1.096545  4.151935  4.185013
  S    -1.179839  7.664206  3.471187
  S     1.530380  4.280987  1.039394
  S     1.894113  7.732483  0.743269
  S     1.570056  4.742256  5.093136
  S     1.206522  8.150549  4.850533
