16  
    
  C     2.208164  4.373836  2.947502
  C     2.114014  8.593806  3.066731
  C     0.956820  4.102858  2.316500
  C     0.984398  7.869804  2.534588
  N     3.206805  4.654595  2.100815
  N     3.131216  8.702281  2.254821
  N     1.036141  3.942330  0.967344
  N     1.246921  7.318667  1.367148
  N     0.305137  4.349538  4.856567
  N     0.370204  8.471987  4.961486
  S    -0.374535  3.819678  3.406155
  S    -0.379967  7.871157  3.580153
  S     2.590436  4.216861  0.636265
  S     2.701265  7.911989  0.797826
  S     1.990423  4.640106  4.666337
  S     1.932551  9.030729  4.737376
