16  
    
  C     0.114788  3.586240  2.673290
  C     0.330801  7.524274  2.685074
  C    -1.081971  3.008925  2.035819
  C    -0.916591  7.287595  2.033210
  N     1.120313  3.821941  1.839189
  N     1.309836  7.596484  1.799625
  N    -0.914595  2.752634  0.773642
  N    -0.857636  7.072954  0.724927
  N    -1.770133  3.338647  4.475207
  N    -1.479664  7.189596  4.550399
  S    -2.354902  2.511200  3.089830
  S    -2.269953  7.115640  3.069393
  S     0.631342  3.246119  0.337603
  S     0.780928  7.401050  0.236360
  S    -0.272205  3.996050  4.298339
  S     0.129344  7.455501  4.440409
