16  
    
  C     3.197548  5.041655  3.523117
  C     3.466612  8.922423  3.711483
  C     1.950569  4.732276  2.918520
  C     2.092469  8.858293  3.182307
  N     4.200069  5.022296  2.627394
  N     4.401633  8.704950  2.794077
  N     1.949989  4.463952  1.628968
  N     1.987504  8.452027  1.926018
  N     1.420915  5.054069  5.376106
  N     1.791113  9.191485  5.621640
  S     0.553407  4.700228  3.969041
  S     0.845138  9.101349  4.304297
  S     3.533723  4.679141  1.165527
  S     3.606324  8.242224  1.379169
  S     3.053594  5.380446  5.281721
  S     3.432396  9.197759  5.436611
