16  
    
  C    -5.867965  0.825250  1.555100
  C    -6.113153  4.415171  1.697848
  C    -7.026876  0.148536  0.977449
  C    -7.229487  4.091512  0.944788
  N    -4.890381  1.215815  0.708464
  N    -5.039712  4.653575  0.940568
  N    -6.943013  0.049903 -0.341409
  N    -7.116820  4.058099 -0.392178
  N    -7.581917  0.416163  3.435787
  N    -7.903541  4.060511  3.388444
  S    -8.326547 -0.113432  2.071027
  S    -8.681171  3.969956  1.904388
  S    -5.516566  0.825561 -0.827565
  S    -5.491325  4.468482 -0.641752
  S    -6.027222  1.075324  3.263309
  S    -6.331078  4.710310  3.401741
