16  
    
  C    -5.797638  0.836359  1.605470
  C    -5.998572  4.589682  1.564942
  C    -6.931457  0.284613  0.918872
  C    -7.176725  4.218207  0.876700
  N    -4.829461  1.175981  0.734049
  N    -4.905293  4.743116  0.774358
  N    -6.823774  0.140361 -0.411686
  N    -7.076276  4.094430 -0.462388
  N    -7.637903  0.661218  3.444682
  N    -7.856199  4.169859  3.359722
  S    -8.274694 -0.036284  2.035147
  S    -8.601420  4.001382  1.872412
  S    -5.340261  0.748776 -0.767503
  S    -5.512997  4.432592 -0.762197
  S    -6.042982  1.015808  3.294438
  S    -6.279455  4.722280  3.307352
