16  
    
  C    -1.753007  2.252407  1.907945
  C    -1.852933  6.581710  2.045316
  C    -3.042981  2.129570  1.342232
  C    -2.908845  5.685246  1.540956
  N    -0.697398  2.360864  1.077287
  N    -0.730985  6.718457  1.299552
  N    -2.988609  1.979506  0.016886
  N    -2.598278  5.260295  0.333116
  N    -3.437495  2.284475  3.866001
  N    -3.469912  6.006160  3.998979
  S    -4.266102  1.811063  2.515925
  S    -4.297549  5.503672  2.633686
  S    -1.410414  2.263395 -0.439378
  S    -1.176400  5.911964 -0.090436
  S    -1.778731  2.532723  3.640404
  S    -2.149300  7.006595  3.729430
