16  
    
  C    -0.327547  3.303501  2.756308
  C    -0.316668  7.064511  2.491854
  C    -1.472605  2.694404  2.094944
  C    -1.437797  6.330492  1.967820
  N     0.698208  3.472851  1.927401
  N     0.641700  7.158098  1.583753
  N    -1.264764  2.374423  0.820902
  N    -1.343250  6.012564  0.679092
  N    -2.253696  3.049442  4.525878
  N    -2.118132  6.992467  4.359706
  S    -2.825700  2.316876  3.101393
  S    -2.750443  6.108353  3.096972
  S     0.256895  2.897060  0.445266
  S     0.201457  6.392103  0.220468
  S    -0.721771  3.673165  4.367375
  S    -0.543894  7.509648  4.187415
