16  
    
  C     3.017520  4.947053  3.235973
  C     3.037310  9.271831  3.784106
  C     1.778754  4.536815  2.646823
  C     1.859565  8.669615  3.099075
  N     3.924162  5.329815  2.326475
  N     4.023120  9.434106  2.934391
  N     1.838236  4.333365  1.319932
  N     1.990762  8.339671  1.858952
  N     1.155649  5.016608  5.085095
  N     1.112697  8.662524  5.453216
  S     0.460837  4.275444  3.772152
  S     0.482321  8.210168  4.011962
  S     3.354764  4.794751  0.846079
  S     3.443954  8.978860  1.359585
  S     2.777804  5.443143  4.882959
  S     2.582126  9.437234  5.491814
