16  
    
  C    -1.609276  2.880805  2.040159
  C    -1.168732  6.792666  2.204768
  C    -2.540824  2.031429  1.375658
  C    -2.455835  6.505103  1.699061
  N    -0.521942  3.129226  1.279223
  N    -0.190451  6.813720  1.308023
  N    -2.398778  1.859481  0.033805
  N    -2.396336  6.217302  0.419745
  N    -3.335877  2.383514  3.860612
  N    -2.811572  6.953073  4.155356
  S    -3.876011  1.637725  2.449602
  S    -3.690958  6.332549  2.873122
  S    -0.838811  2.495304 -0.224030
  S    -0.881526  6.531764 -0.163021
  S    -1.873575  3.202703  3.712473
  S    -1.200029  7.121211  3.874951
