16  
    
  C     3.104893  5.181999  3.419387
  C     3.170364  8.815010  3.754438
  C     1.882578  4.717116  2.838642
  C     1.834423  8.551222  3.277250
  N     4.124052  5.144887  2.549093
  N     4.141480  8.554968  2.858827
  N     1.923467  4.543281  1.519971
  N     1.789903  8.214199  1.994298
  N     1.391455  5.027552  5.313494
  N     1.752664  9.375626  5.801231
  S     0.573163  4.550328  3.936920
  S     0.641143  8.993458  4.543279
  S     3.491744  4.673740  1.105530
  S     3.360836  8.251626  1.460027
  S     3.035531  5.243948  5.192436
  S     3.364317  9.384342  5.282087
