16  
    
  C    -2.579903  2.291435  2.276670
  C    -2.724988  5.788820  2.047669
  C    -3.738760  1.905288  1.581735
  C    -3.913219  5.251178  1.418711
  N    -1.624581  2.752926  1.468247
  N    -1.639568  6.063333  1.281686
  N    -3.627073  1.811036  0.259996
  N    -3.705510  5.222747  0.074186
  N    -4.262504  1.934493  4.085646
  N    -4.469723  5.377366  3.930653
  S    -5.049127  1.609478  2.680185
  S    -5.241433  4.904517  2.544773
  S    -2.083669  2.410317 -0.042740
  S    -2.183776  5.701778 -0.310716
  S    -2.700413  2.420063  4.001752
  S    -2.832783  5.712210  3.761974
