16  
    
  C     1.428717  4.583616  3.362648
  C     1.387371  7.984304  3.137155
  C     0.085324  4.083694  2.910330
  C     0.164220  7.846568  2.451227
  N     2.393557  4.537140  2.448658
  N     2.443878  7.979617  2.340592
  N     0.030048  3.920250  1.580621
  N     0.308103  7.752763  1.134838
  N    -0.116603  4.603829  5.465555
  N    -0.430667  7.962212  4.946435
  S    -1.114078  4.146888  4.183811
  S    -1.192287  7.695616  3.469662
  S     1.519770  4.290555  1.017161
  S     1.906700  7.715546  0.748279
  S     1.575651  4.727199  5.077068
  S     1.217331  8.143924  4.840358
