16  
    
  C    -5.354163  0.934832  1.777643
  C    -5.129454  4.654504  1.398540
  C    -6.586342  0.639799  1.070218
  C    -6.353010  4.312539  0.740562
  N    -4.358558  1.091485  0.930762
  N    -4.119191  4.822814  0.569634
  N    -6.446289  0.470384 -0.222895
  N    -6.217727  4.097563 -0.548282
  N    -7.178753  1.026812  3.639393
  N    -7.029674  5.004598  3.137518
  S    -7.893380  0.618189  2.178689
  S    -7.793653  4.472139  1.754808
  S    -4.865738  0.835589 -0.589463
  S    -4.619420  4.460675 -0.984083
  S    -5.517623  1.343470  3.454948
  S    -5.389711  5.243120  2.988141
