16  
    
  C    -1.173510  3.025950  2.254150
  C    -0.938473  6.843994  2.468426
  C    -2.495182  2.719677  1.695207
  C    -2.228220  6.615023  1.878473
  N    -0.182619  3.041224  1.373510
  N    -0.025405  7.098220  1.532292
  N    -2.544733  2.816134  0.368992
  N    -2.260671  6.493094  0.524906
  N    -2.864300  3.110906  4.266566
  N    -2.644633  6.771879  4.366624
  S    -3.727809  2.730484  2.866298
  S    -3.566167  6.555359  3.015951
  S    -0.944551  2.907716 -0.134917
  S    -0.752254  6.898406  0.062999
  S    -1.202119  3.312982  3.999524
  S    -1.004919  7.031267  4.212970
