16  
    
  C    -3.704496  1.885672  1.859003
  C    -3.975380  5.347302  1.778180
  C    -4.848802  1.353428  1.205162
  C    -5.090699  4.878460  1.049413
  N    -2.726599  2.113480  1.017533
  N    -2.930598  5.604225  1.023364
  N    -4.905760  1.373276 -0.117306
  N    -4.921049  4.810011 -0.273402
  N    -5.345597  1.463139  3.682355
  N    -5.798839  4.993224  3.518951
  S    -6.186189  1.142579  2.291823
  S    -6.405840  4.401800  2.045459
  S    -3.336141  1.861978 -0.508826
  S    -3.387780  5.403267 -0.500327
  S    -3.741317  1.905620  3.557475
  S    -4.230498  5.442371  3.491188
