16  
    
  C    -1.139090  3.016096  2.368714
  C    -0.797647  6.950699  2.264218
  C    -2.401368  2.829310  1.754524
  C    -2.066262  6.551207  1.690827
  N    -0.100034  3.105916  1.545524
  N     0.241290  6.911981  1.415511
  N    -2.323320  2.516411  0.475132
  N    -2.030999  6.329396  0.352818
  N    -2.942707  3.171360  4.202613
  N    -2.368038  6.534712  4.291839
  S    -3.760188  3.020770  2.793709
  S    -3.276525  6.428837  2.911985
  S    -0.716807  2.662186  0.064077
  S    -0.482320  6.615265 -0.071149
  S    -1.313354  3.265974  4.121014
  S    -0.701551  6.919244  4.021344
