16  
    
  C    -4.150038  1.536289  1.943391
  C    -4.003344  5.225580  1.859899
  C    -5.373524  0.957394  1.379566
  C    -5.245456  4.641537  1.296989
  N    -3.215409  1.733491  1.011448
  N    -3.062143  5.374432  0.951377
  N    -5.240764  0.524324  0.109550
  N    -5.158553  4.202298  0.050957
  N    -5.917002  1.745720  3.694295
  N    -5.772187  5.231277  3.618578
  S    -6.693894  0.931988  2.477629
  S    -6.562059  4.565885  2.326199
  S    -3.832113  1.049379 -0.394388
  S    -3.633172  4.613281 -0.429306
  S    -4.309665  2.068932  3.511981
  S    -4.164118  5.665933  3.529111
