16  
    
  C     2.356323  4.887505  3.365961
  C     2.441839  8.667004  3.486357
  C     1.249815  4.210803  2.667876
  C     1.181407  8.332866  2.860195
  N     3.367461  5.162579  2.535100
  N     3.511939  8.712748  2.654304
  N     1.301602  4.244169  1.324600
  N     1.251147  8.254713  1.521171
  N     0.587012  4.230627  5.174103
  N     0.786025  8.730964  5.365376
  S    -0.143896  3.909590  3.725968
  S    -0.088540  8.081173  4.131766
  S     2.890503  4.695824  1.014269
  S     2.853584  8.646136  1.169833
  S     2.196911  4.725098  5.130084
  S     2.413294  8.978463  5.178652
