16  
    
  C    -2.495388  2.513226  1.980429
  C    -2.436999  6.212530  2.148768
  C    -3.771436  2.203361  1.450053
  C    -3.539564  5.576608  1.480237
  N    -1.471098  2.599367  1.124008
  N    -1.374317  6.402837  1.314185
  N    -3.708411  1.844254  0.165739
  N    -3.349999  5.377335  0.154615
  N    -4.181491  2.470593  3.942206
  N    -4.287192  5.895672  3.871709
  S    -5.031537  1.952639  2.622798
  S    -4.978349  5.373623  2.450214
  S    -2.158192  2.168446 -0.335691
  S    -1.706253  5.767342 -0.172209
  S    -2.633651  2.922477  3.704890
  S    -2.740240  6.524755  3.830648
