16  
    
  C     1.247573  4.716554  3.261823
  C     1.470314  7.982261  3.113788
  C     0.001465  4.091192  2.780048
  C     0.229608  7.831244  2.433620
  N     2.191763  4.808971  2.321629
  N     2.534298  7.931915  2.301159
  N    -0.105465  3.984191  1.460789
  N     0.364813  7.562571  1.142448
  N    -0.167986  4.256100  5.400193
  N    -0.345930  8.076192  4.945819
  S    -1.129373  4.041698  4.028273
  S    -1.087412  8.134119  3.461774
  S     1.447825  4.325917  0.865975
  S     2.009025  7.672544  0.774493
  S     1.438237  4.653726  4.994357
  S     1.331918  8.121196  4.835635
