16  
    
  C    -0.718700  3.005785  2.439158
  C    -0.876821  6.322148  2.492159
  C    -1.984195  2.675905  1.858594
  C    -2.020821  5.848857  1.766701
  N     0.234494  3.322214  1.544689
  N     0.194983  6.541841  1.729918
  N    -1.935743  2.402107  0.532533
  N    -1.853439  5.871226  0.413268
  N    -2.434211  2.739058  4.406762
  N    -2.863858  6.405408  4.237262
  S    -3.250057  2.559697  2.962291
  S    -3.504376  5.733401  2.880272
  S    -0.389248  2.808847  0.061192
  S    -0.262809  6.197630  0.165921
  S    -0.837056  3.239634  4.182029
  S    -1.196332  6.637063  4.200149
