16  
    
  C    -0.429873  3.619593  2.868094
  C    -0.760340  6.916587  2.671972
  C    -1.518101  2.934928  2.280028
  C    -1.879489  6.392770  1.924073
  N     0.652242  3.775601  2.096427
  N     0.382634  7.050979  1.987929
  N    -1.377923  2.666806  0.977637
  N    -1.607159  6.129705  0.657885
  N    -2.178248  3.241165  4.722977
  N    -2.781919  6.522551  4.330929
  S    -2.916534  2.924301  3.297948
  S    -3.347760  6.034932  2.834503
  S     0.131816  3.184759  0.583597
  S    -0.093641  6.638684  0.420051
  S    -0.600980  3.729352  4.644776
  S    -1.185122  7.042093  4.423399
