16  
    
  C    -4.445967  1.594879  1.966248
  C    -4.648438  4.995322  1.697499
  C    -5.585559  0.990749  1.346298
  C    -5.837740  4.443553  1.024619
  N    -3.461843  1.755660  1.081904
  N    -3.580457  5.299821  0.952355
  N    -5.581510  0.811455  0.023427
  N    -5.627502  4.314147 -0.291875
  N    -5.927414  1.043869  3.900210
  N    -6.424357  4.716524  3.524666
  S    -6.798734  0.607272  2.519399
  S    -7.056524  3.940173  2.111200
  S    -4.040419  1.292587 -0.355748
  S    -4.131646  4.930696 -0.549535
  S    -4.393551  1.732244  3.674798
  S    -4.807634  5.140248  3.345140
