16  
    
  C    -3.363139  1.472567  2.130710
  C    -3.188627  5.490326  2.038850
  C    -4.617210  1.275177  1.445073
  C    -4.461279  5.090143  1.401108
  N    -2.300106  1.578503  1.323818
  N    -2.133742  5.458972  1.218829
  N    -4.560727  0.970505  0.142554
  N    -4.329942  4.790862  0.132612
  N    -5.259885  1.526081  4.002840
  N    -4.932738  5.293240  4.001277
  S    -5.984394  1.190588  2.545608
  S    -5.776197  4.949051  2.541647
  S    -2.965025  1.131754 -0.209695
  S    -2.752988  5.105822 -0.277810
  S    -3.629187  1.775030  3.792417
  S    -3.334506  5.674272  3.795216
