16  
    
  C     2.913191  5.480059  3.880870
  C     2.413278  8.607231  3.294346
  C     1.784109  4.706931  3.391855
  C     1.226780  8.038706  2.620448
  N     3.924278  5.562441  3.021193
  N     3.495666  8.693512  2.543060
  N     1.820117  4.391629  2.086821
  N     1.466414  7.720888  1.341482
  N     1.158829  5.440925  5.783737
  N     0.585007  8.409507  5.074021
  S     0.418919  4.807576  4.407127
  S    -0.131171  7.869168  3.691164
  S     3.367774  4.742953  1.681464
  S     2.968655  8.246797  1.000880
  S     2.802557  5.755379  5.570846
  S     2.116101  8.807819  5.006397
