16  
    
  C    -3.024398  2.105133  1.793279
  C    -2.971481  5.927088  1.962856
  C    -4.135510  1.566956  1.038579
  C    -4.223259  5.422274  1.438766
  N    -2.058201  2.520086  1.029196
  N    -1.970163  6.084174  1.090079
  N    -3.968736  1.472689 -0.260816
  N    -4.170003  5.260840  0.163152
  N    -4.808524  1.635308  3.464229
  N    -4.595216  5.649371  3.975878
  S    -5.506265  1.167427  2.046510
  S    -5.503909  5.265068  2.687390
  S    -2.484693  2.219131 -0.529977
  S    -2.721755  5.763857 -0.415147
  S    -3.312423  2.322583  3.456150
  S    -2.973687  6.075025  3.697927
