16  
    
  C    -4.758389  1.206188  1.478978
  C    -4.767298  4.772389  1.963804
  C    -5.973289  0.729586  0.822255
  C    -5.907012  4.189809  1.294773
  N    -3.712118  1.348758  0.677928
  N    -3.715424  4.929684  1.189067
  N    -5.831838  0.589834 -0.485180
  N    -5.745964  4.006449 -0.003011
  N    -6.513073  0.806578  3.279876
  N    -6.408006  4.441586  3.795412
  S    -7.307733  0.322557  1.897081
  S    -7.222336  4.034433  2.390380
  S    -4.181198  0.846727 -0.849198
  S    -4.125801  4.368474 -0.311512
  S    -4.974622  1.199316  3.161793
  S    -4.829829  5.001442  3.674465
