16  
    
  C     3.603915  5.401287  3.573780
  C     3.455519  9.166378  3.607626
  C     2.377881  4.917388  2.909142
  C     2.301271  8.630930  2.884826
  N     4.653030  5.627776  2.780259
  N     4.468341  9.401385  2.763925
  N     2.490948  5.042956  1.576777
  N     2.480549  8.370725  1.625976
  N     1.762348  5.253296  5.454133
  N     1.599122  8.589584  5.330606
  S     1.058948  4.913032  4.062847
  S     0.971676  8.156916  3.843433
  S     4.067096  5.371711  1.185791
  S     3.904083  8.970595  1.236061
  S     3.389521  5.432381  5.325492
  S     3.149165  9.202167  5.376176
