16  
    
  C    -0.359920  3.258082  2.521064
  C    -0.247630  7.018463  2.276963
  C    -1.581550  2.757502  2.005408
  C    -1.459195  6.637321  1.730281
  N     0.605090  3.462907  1.635877
  N     0.778182  7.147357  1.444511
  N    -1.573344  2.679127  0.677445
  N    -1.450719  6.456856  0.400076
  N    -2.058851  3.204220  4.519343
  N    -1.971257  6.727419  4.225671
  S    -2.902518  2.831443  3.097527
  S    -2.817272  6.549255  2.811955
  S    -0.010962  2.997590  0.171784
  S     0.114235  6.873796 -0.085896
  S    -0.434040  3.497300  4.256821
  S    -0.380848  7.163079  4.083631
