16  
    
  C     1.928984  5.130765  3.052547
  C     2.208186  8.505511  3.133250
  C     0.900524  4.352977  2.465859
  C     1.081430  7.972195  2.456956
  N     2.949800  5.354033  2.259697
  N     3.241395  8.837514  2.370856
  N     1.102486  4.073749  1.191398
  N     1.297475  7.883181  1.122591
  N     0.112992  4.571119  4.775139
  N     0.543528  8.178391  5.014656
  S    -0.549861  4.166233  3.383278
  S    -0.276751  7.733239  3.638877
  S     2.546976  4.736617  0.772749
  S     2.819140  8.498654  0.857349
  S     1.629255  5.151039  4.741533
  S     2.099495  8.619479  4.844239
