16  
    
  C    -5.693673  0.884888  1.536703
  C    -5.910066  4.708010  1.345073
  C    -6.904088  0.504865  0.865935
  C    -7.149515  4.257127  0.665065
  N    -4.545869  1.010738  0.808040
  N    -4.855369  4.924271  0.545998
  N    -6.728379  0.249517 -0.429525
  N    -6.995776  4.098742 -0.676811
  N    -7.557559  0.552829  3.377466
  N    -7.591208  4.522663  3.204931
  S    -8.243210  0.196940  1.900903
  S    -8.396981  3.990075  1.830584
  S    -5.122265  0.591939 -0.719033
  S    -5.394303  4.486622 -0.943508
  S    -5.954037  1.054473  3.241667
  S    -5.918223  4.783351  3.084882
