16  
    
  C     0.798673  3.656578  2.802940
  C     0.546379  7.611328  2.729394
  C    -0.566888  3.371328  2.269011
  C    -0.618971  6.932979  2.242572
  N     1.667969  4.071179  1.881873
  N     1.467763  7.794630  1.788155
  N    -0.511398  3.327618  0.950954
  N    -0.512400  6.621110  0.947468
  N    -1.004582  3.556958  4.748434
  N    -0.942505  7.281396  4.811034
  S    -1.869579  3.236749  3.418273
  S    -1.784932  6.636141  3.509876
  S     0.981004  3.683912  0.447617
  S     0.971027  7.185017  0.356715
  S     0.651095  3.835188  4.559653
  S     0.463465  8.112225  4.353156
