16  
    
  C     0.614517  3.563485  2.778642
  C     0.740087  7.678522  2.662686
  C    -0.686686  3.328673  2.117608
  C    -0.486969  7.066462  2.018343
  N     1.626461  3.663299  1.923049
  N     1.683672  8.067987  1.819824
  N    -0.632354  3.261630  0.790987
  N    -0.479118  7.100204  0.681979
  N    -1.237499  3.269276  4.601355
  N    -0.886743  6.940683  4.566593
  S    -1.973696  2.856331  3.188251
  S    -1.724850  6.626297  3.144067
  S     0.973494  3.636198  0.363753
  S     1.037970  7.721706  0.333241
  S     0.443004  3.581951  4.464109
  S     0.607485  7.681537  4.370607
