16  
    
  C    -3.156675  1.928728  1.775036
  C    -3.073360  5.738248  2.082935
  C    -4.254549  1.278148  1.037476
  C    -4.361419  5.379003  1.470905
  N    -2.052494  2.206878  1.086822
  N    -2.195491  6.100659  1.135125
  N    -3.963651  1.132750 -0.268648
  N    -4.402887  5.340088  0.143473
  N    -5.160460  1.611980  3.527007
  N    -4.819960  5.377268  4.042854
  S    -5.691449  1.165149  2.019400
  S    -5.650974  5.131356  2.634709
  S    -2.482767  1.781914 -0.514338
  S    -2.863186  5.763546 -0.358692
  S    -3.553721  2.159026  3.481432
  S    -3.158687  5.843824  3.864197
