16  
    
  C    -5.211727  1.169630  1.810611
  C    -5.118316  5.040685  1.321591
  C    -6.396395  0.586767  1.157108
  C    -6.321554  4.580935  0.651830
  N    -4.193967  1.311339  1.000749
  N    -3.990362  5.071532  0.602166
  N    -6.243854  0.196245 -0.084683
  N    -6.086459  4.179454 -0.584531
  N    -7.052852  1.021850  3.641613
  N    -6.935951  4.599692  3.142390
  S    -7.736302  0.413490  2.177849
  S    -7.654222  4.142055  1.721321
  S    -4.675712  0.734436 -0.498931
  S    -4.467595  4.420046 -0.879393
  S    -5.354009  1.358729  3.525349
  S    -5.397542  5.274389  3.051747
