16  
    
  C    -0.429827  3.430844  2.642092
  C    -0.239017  6.973005  2.500030
  C    -1.396691  2.501581  2.089545
  C    -1.372263  6.562867  1.817964
  N     0.728337  3.556326  1.951593
  N     0.839238  7.210933  1.736121
  N    -1.091380  2.116561  0.855593
  N    -1.174298  6.312641  0.529290
  N    -2.212270  3.081708  4.456623
  N    -2.241384  6.915700  4.223265
  S    -2.818527  2.291820  3.121922
  S    -2.853505  6.499929  2.738729
  S     0.361605  2.808992  0.482917
  S     0.386930  6.642129  0.220710
  S    -0.714595  3.738396  4.322177
  S    -0.655787  7.420512  4.228222
