16  
    
  C    -2.548242  2.104458  2.013069
  C    -2.482189  5.816816  2.083756
  C    -3.804368  1.916886  1.350477
  C    -3.700535  5.384888  1.419825
  N    -1.518895  2.167126  1.170686
  N    -1.358158  5.734845  1.360913
  N    -3.743612  1.580511  0.040085
  N    -3.477897  5.090226  0.167873
  N    -4.230660  2.242465  3.898972
  N    -4.441207  5.864290  3.758256
  S    -5.112586  2.074304  2.546038
  S    -5.152704  5.285013  2.391643
  S    -2.120236  1.720444 -0.333345
  S    -1.821562  5.397995 -0.150678
  S    -2.599857  2.334536  3.749439
  S    -2.768684  6.003740  3.790783
