16  
    
  C     2.230582  4.438318  3.028385
  C     1.949864  8.407529  3.055951
  C     1.076975  3.819617  2.349099
  C     0.798946  7.667067  2.545134
  N     3.313366  4.513222  2.269196
  N     3.060135  8.426003  2.282102
  N     1.249325  3.716991  1.057501
  N     1.053887  7.131663  1.344071
  N     0.283760  4.330562  4.770177
  N     0.135405  8.665064  4.909374
  S    -0.367347  3.887146  3.260563
  S    -0.518732  7.655661  3.732692
  S     2.906013  3.962166  0.728889
  S     2.605951  7.660336  0.929178
  S     1.889766  4.562294  4.732294
  S     1.772208  9.090102  4.638387
