16  
    
  C     0.573834  3.951746  2.960889
  C     0.660821  7.477567  2.777080
  C    -0.522546  3.171381  2.455141
  C    -0.483068  6.961403  2.111708
  N     1.592202  4.039868  2.102975
  N     1.742981  7.630188  2.045372
  N    -0.414217  2.856410  1.135229
  N    -0.293402  6.744361  0.821154
  N    -1.210253  4.005796  4.815737
  N    -1.080259  7.197527  4.586614
  S    -1.920487  3.300413  3.555175
  S    -1.880407  6.785856  3.224255
  S     1.082457  3.319210  0.707044
  S     1.217183  7.223599  0.496933
  S     0.459862  4.330545  4.640324
  S     0.462831  7.833846  4.504496
