16  
    
  C     1.223863  4.342023  3.121500
  C     1.659646  8.216728  2.987911
  C    -0.033825  4.023833  2.502390
  C     0.369833  8.028062  2.330867
  N     2.146934  4.604377  2.223081
  N     2.746228  8.040502  2.243731
  N    -0.009639  4.073942  1.164654
  N     0.465911  7.844089  0.998419
  N    -0.527364  4.186336  5.076821
  N    -0.090486  8.278217  4.875430
  S    -1.258072  3.740269  3.637331
  S    -0.965494  8.130203  3.473155
  S     1.536876  4.420464  0.741856
  S     2.090988  7.846115  0.724752
  S     1.105584  4.562162  4.894046
  S     1.549754  8.416513  4.730538
