16  
    
  C     3.101121  5.092970  3.388207
  C     3.183512  8.970322  3.729697
  C     1.839390  4.899595  2.723592
  C     1.849072  8.659278  3.319629
  N     4.176012  5.078213  2.597682
  N     4.057231  8.789163  2.762849
  N     2.008314  4.593084  1.451847
  N     1.720849  8.338314  2.024411
  N     1.285517  5.015557  5.263871
  N     1.530082  9.414139  5.812080
  S     0.511271  4.543604  3.859135
  S     0.630545  8.791309  4.477265
  S     3.581703  4.770467  1.042411
  S     3.210174  8.194775  1.424313
  S     2.957097  5.223371  5.130618
  S     3.200089  9.416104  5.527947
