16  
    
  C    -2.402629  1.971541  1.996105
  C    -2.606355  5.724005  2.076285
  C    -3.695443  1.773208  1.456830
  C    -3.838737  5.378956  1.382074
  N    -1.338083  1.843090  1.215389
  N    -1.572171  5.759798  1.280036
  N    -3.646852  1.678479  0.131395
  N    -3.745486  5.157998  0.078962
  N    -4.091091  2.283516  4.029362
  N    -4.371626  5.469809  3.912654
  S    -4.969823  2.107136  2.639464
  S    -5.104634  5.059944  2.490302
  S    -2.053411  1.770784 -0.327834
  S    -2.101107  5.465082 -0.216050
  S    -2.435400  2.366813  3.717134
  S    -2.706669  5.809795  3.793502
