16  
    
  C    -1.857760  2.491681  2.500592
  C    -1.690643  5.773651  2.377686
  C    -3.091310  2.223050  1.837548
  C    -2.891418  5.508553  1.610238
  N    -0.812126  2.576357  1.702299
  N    -0.652136  6.038774  1.643189
  N    -3.030556  2.290663  0.511576
  N    -2.709070  5.633327  0.303161
  N    -3.643279  2.265201  4.326234
  N    -3.621467  5.646952  4.029151
  S    -4.483809  1.971684  2.896221
  S    -4.332270  5.316323  2.545231
  S    -1.395861  2.404621  0.134931
  S    -1.111299  5.888943  0.088132
  S    -1.994247  2.507710  4.202166
  S    -1.965274  5.959577  4.149154
