16  
    
  C     3.151480  5.099048  3.436812
  C     3.226476  8.903682  3.781920
  C     1.865396  4.884245  2.795708
  C     1.875390  8.696551  3.290117
  N     4.168112  5.173981  2.583722
  N     4.114474  8.644975  2.788423
  N     1.909639  4.612157  1.504650
  N     1.716399  8.249984  2.071175
  N     1.321982  5.019202  5.241864
  N     1.620802  9.379098  5.707071
  S     0.588177  4.531812  3.855423
  S     0.645188  8.856226  4.504552
  S     3.511432  4.694284  1.090844
  S     3.231155  8.225284  1.429857
  S     2.972564  5.211598  5.129422
  S     3.236798  9.436377  5.450875
