16  
    
  C    -0.359548  3.379622  2.639034
  C    -0.398074  6.955850  2.450828
  C    -1.629711  3.177258  2.034854
  C    -1.617969  6.398973  1.844576
  N     0.666644  3.380128  1.798199
  N     0.577913  7.182919  1.544317
  N    -1.623964  2.991217  0.728776
  N    -1.635324  6.336113  0.518456
  N    -2.082416  3.228532  4.639334
  N    -2.097775  6.706334  4.310095
  S    -2.901396  2.890659  3.193515
  S    -2.896823  6.190699  2.979615
  S    -0.049429  3.251116  0.264952
  S    -0.135368  6.729265  0.099077
  S    -0.419481  3.671016  4.395339
  S    -0.488573  7.118995  4.129755
