16  
    
  C    -5.102412  1.169550  1.782319
  C    -5.067130  4.937557  1.477664
  C    -6.282944  0.631572  1.160600
  C    -6.184244  4.337166  0.812626
  N    -4.097616  1.396650  0.927980
  N    -3.999108  5.074009  0.715901
  N    -6.042157  0.286347 -0.109958
  N    -5.966549  4.124974 -0.472153
  N    -6.914183  0.926310  3.591530
  N    -6.875326  4.590431  3.256655
  S    -7.577987  0.287929  2.292863
  S    -7.478836  4.008593  1.822822
  S    -4.475029  0.663565 -0.482614
  S    -4.348203  4.518127 -0.814762
  S    -5.367917  1.399791  3.482870
  S    -5.333004  5.266919  3.158303
