16  
    
  C     1.886853  4.619746  3.316886
  C     1.403218  8.116458  3.043549
  C     0.698598  4.067648  2.725052
  C     0.439694  7.293939  2.428314
  N     2.918251  4.677352  2.465435
  N     2.291762  8.584620  2.194571
  N     0.785606  3.658562  1.485477
  N     0.619694  7.134685  1.135811
  N     0.131862  4.551935  5.221428
  N    -0.303881  7.576712  4.794849
  S    -0.725598  4.165089  3.815166
  S    -0.923925  6.963512  3.412879
  S     2.303705  4.099061  0.994513
  S     1.975995  7.923524  0.693078
  S     1.747604  4.860583  5.045714
  S     1.219295  8.243906  4.723810
