16  
    
  C    -4.059105  1.417896  1.684605
  C    -4.076542  5.199178  1.961955
  C    -5.366502  1.269260  1.006550
  C    -5.342633  5.045332  1.249630
  N    -2.958321  1.303755  0.916795
  N    -3.043422  5.285613  1.100909
  N    -5.209621  1.128538 -0.297665
  N    -5.263422  5.183817 -0.072296
  N    -5.899018  1.584801  3.577631
  N    -5.900109  4.822304  3.800114
  S    -6.720982  1.322368  2.112522
  S    -6.663554  4.921478  2.312830
  S    -3.543305  1.121455 -0.692809
  S    -3.636058  5.319241 -0.395505
  S    -4.248550  1.676888  3.370948
  S    -4.277171  5.258280  3.689383
