16  
    
  C    -0.163293  3.249466  2.607426
  C    -0.103785  7.035487  2.508171
  C    -1.275646  2.575600  1.955162
  C    -1.357141  6.594658  1.788408
  N     0.743122  3.763345  1.788523
  N     0.977487  7.254916  1.761383
  N    -1.033032  2.241044  0.688226
  N    -1.211256  6.661327  0.456417
  N    -1.923938  2.828489  4.429084
  N    -1.834390  6.527959  4.293908
  S    -2.606253  2.301188  3.032849
  S    -2.584982  6.065709  2.848269
  S     0.409447  3.018264  0.321053
  S     0.342168  7.190200  0.195411
  S    -0.395091  3.484821  4.321545
  S    -0.175422  6.923671  4.181314
