16  
    
  C    -6.048857  0.733458  1.370713
  C    -6.110897  4.289391  1.820672
  C    -7.222245  0.168720  0.845386
  C    -7.263860  3.845108  1.046980
  N    -5.220108  1.262890  0.459014
  N    -5.087405  4.657855  1.053205
  N    -7.225291  0.140235 -0.478494
  N    -7.038887  3.875890 -0.271147
  N    -7.699902  0.259677  3.393891
  N    -7.805789  3.653522  3.576217
  S    -8.440258 -0.268297  2.005939
  S    -8.640311  3.527987  2.104457
  S    -5.864009  0.969031 -1.047912
  S    -5.484897  4.487592 -0.537242
  S    -6.142544  0.886279  3.089921
  S    -6.348889  4.510772  3.542494
