16  
    
  C    -2.250555  2.498899  1.950022
  C    -2.151127  5.842300  2.221496
  C    -3.465066  2.100211  1.359618
  C    -3.379564  5.404639  1.593063
  N    -1.279195  2.579504  1.043705
  N    -1.163250  6.052809  1.348289
  N    -3.471944  1.731892  0.065075
  N    -3.330692  5.354765  0.260792
  N    -3.897610  2.380170  3.946774
  N    -4.065111  5.933471  4.037284
  S    -4.753876  1.991761  2.548622
  S    -4.801926  5.428034  2.618012
  S    -1.912972  2.059380 -0.416716
  S    -1.731786  5.704791 -0.165054
  S    -2.272566  2.691923  3.697902
  S    -2.420655  6.151411  3.949471
