16  
    
  C    -5.864680  0.803519  1.557799
  C    -6.054632  4.382772  1.714162
  C    -7.026798  0.191944  0.920543
  C    -7.315648  4.085154  0.913704
  N    -4.984526  1.243718  0.694393
  N    -4.992334  4.660728  0.991679
  N    -7.001124  0.021938 -0.406923
  N    -7.093641  4.030203 -0.390550
  N    -7.522786  0.335521  3.490903
  N    -7.965114  4.075890  3.453436
  S    -8.361167 -0.166805  2.062613
  S    -8.706962  3.930805  1.968305
  S    -5.600293  0.821751 -0.822536
  S    -5.497690  4.469366 -0.569761
  S    -6.010145  1.098927  3.261835
  S    -6.380742  4.662874  3.396916
