16  
    
  C    -2.420219  1.947058  2.026371
  C    -2.496049  5.731278  2.061910
  C    -3.697307  1.880726  1.424933
  C    -3.772407  5.383166  1.426955
  N    -1.446453  1.910477  1.150528
  N    -1.409882  5.743583  1.269811
  N    -3.723195  1.641668  0.114123
  N    -3.571673  5.157240  0.144625
  N    -4.055899  2.225156  3.959021
  N    -4.358008  5.438879  3.899129
  S    -4.970377  2.119298  2.591130
  S    -5.168865  5.197671  2.465074
  S    -2.085953  1.636419 -0.321242
  S    -2.023812  5.411122 -0.304932
  S    -2.424363  2.386746  3.763104
  S    -2.784078  5.900004  3.803396
