16  
    
  C    -0.175288  3.236148  2.643280
  C    -0.089686  6.982585  2.447148
  C    -1.456011  2.756490  2.006300
  C    -1.265319  6.440358  1.720742
  N     0.840898  3.397283  1.789967
  N     0.931597  7.282492  1.639877
  N    -1.301187  2.388525  0.733028
  N    -1.187978  6.502010  0.388663
  N    -1.947301  2.853013  4.515355
  N    -1.906941  6.387788  4.223287
  S    -2.648783  2.240964  3.184196
  S    -2.576294  5.994250  2.746822
  S     0.200794  2.941138  0.285696
  S     0.359253  7.019697  0.022531
  S    -0.413627  3.474728  4.306712
  S    -0.328172  7.025692  4.170263
