16  
    
  C    -4.732304  1.179227  1.468392
  C    -4.753112  4.763764  1.968274
  C    -5.975343  0.749429  0.817763
  C    -5.908802  4.191281  1.290036
  N    -3.698216  1.341398  0.681730
  N    -3.704274  4.917391  1.190143
  N    -5.840023  0.597022 -0.492865
  N    -5.746174  4.004463 -0.015154
  N    -6.507828  0.816429  3.268738
  N    -6.419285  4.453407  3.800985
  S    -7.318314  0.326319  1.896932
  S    -7.228034  4.038914  2.383387
  S    -4.177135  0.849942 -0.863299
  S    -4.136713  4.376247 -0.316875
  S    -4.975313  1.194096  3.161669
  S    -4.827031  4.996582  3.686344
