16  
    
  C    -6.043997  0.784418  1.348969
  C    -6.100550  4.346915  1.778460
  C    -7.237192  0.121672  0.772338
  C    -7.218581  3.802797  1.028044
  N    -5.132847  1.226151  0.489840
  N    -5.085865  4.678075  1.039628
  N    -7.226858  0.160289 -0.555312
  N    -7.101327  3.892314 -0.285467
  N    -7.668468  0.262278  3.341513
  N    -7.764889  3.619771  3.535060
  S    -8.512070 -0.182783  1.961164
  S    -8.560283  3.485517  2.093575
  S    -5.828971  0.979849 -1.065100
  S    -5.522237  4.474862 -0.541625
  S    -6.147497  0.858197  3.119415
  S    -6.310162  4.481178  3.513821
