16  
    
  C     1.996888  4.625223  3.268843
  C     1.592163  7.885157  3.034782
  C     0.871825  3.972193  2.689448
  C     0.345854  7.572323  2.295567
  N     3.026418  4.826515  2.406512
  N     2.717726  7.921425  2.313415
  N     0.892165  4.035778  1.341263
  N     0.538341  7.459252  0.989890
  N     0.351143  4.071416  5.210663
  N    -0.269782  7.597911  4.861107
  S    -0.440758  3.665161  3.787395
  S    -1.018750  7.237751  3.383870
  S     2.406761  4.454548  0.933410
  S     2.190579  7.726283  0.744403
  S     1.899140  4.779098  5.014663
  S     1.356567  7.863774  4.768528
