16  
    
  C     0.247778  3.687145  2.914474
  C     0.376212  7.490062  2.794249
  C    -0.902861  3.225305  2.113715
  C    -0.947794  7.494849  2.228884
  N     1.271127  3.923110  2.089699
  N     1.278408  7.622860  1.848217
  N    -0.738081  3.024524  0.819749
  N    -1.022493  7.562877  0.923516
  N    -1.557923  3.045811  4.629272
  N    -1.356746  7.482270  4.751053
  S    -2.223340  2.782944  3.149768
  S    -2.224445  7.388311  3.351129
  S     0.796964  3.660790  0.530580
  S     0.622248  7.560147  0.306196
  S     0.084392  3.500578  4.633456
  S     0.331562  7.600707  4.529627
