16  
    
  C    -0.274846  3.346463  2.573938
  C    -0.059584  6.927168  2.405770
  C    -1.366930  2.636184  2.023466
  C    -1.208085  6.501350  1.710841
  N     0.811919  3.444572  1.804101
  N     0.941088  7.306830  1.627215
  N    -1.238937  2.409404  0.721425
  N    -1.208940  6.599494  0.391997
  N    -1.944986  2.866208  4.552602
  N    -1.909034  6.408055  4.265710
  S    -2.660437  2.234972  3.149364
  S    -2.555823  6.000711  2.786608
  S     0.271744  2.943456  0.295502
  S     0.357838  7.046169  0.019362
  S    -0.400424  3.473619  4.300671
  S    -0.343468  6.984211  4.214312
