16  
    
  C     2.469868  4.929608  3.495666
  C     2.506783  8.694934  3.433800
  C     1.305758  4.429759  2.814007
  C     1.304988  8.066522  2.909215
  N     3.513965  5.207172  2.715284
  N     3.451675  8.774409  2.491839
  N     1.508762  4.225888  1.488864
  N     1.306841  7.748987  1.593399
  N     0.748249  4.477917  5.476598
  N     0.675944  8.539686  5.357861
  S    -0.018792  4.100937  3.973651
  S     0.051748  7.699873  4.036159
  S     3.099257  4.648019  1.217327
  S     2.742298  8.319130  1.064805
  S     2.284316  5.142920  5.218882
  S     2.281516  9.123032  5.155128
