16  
    
  C     2.145767  4.487899  3.044232
  C     2.075282  8.137950  3.186876
  C     0.980228  3.920173  2.400271
  C     0.889692  7.589284  2.481718
  N     3.151317  4.678906  2.199342
  N     3.161754  8.170431  2.410462
  N     1.088552  3.616610  1.100867
  N     1.060075  7.139697  1.255922
  N     0.212675  4.476947  4.852252
  N     0.038998  8.247660  4.836814
  S    -0.456497  3.963547  3.420460
  S    -0.564825  7.495060  3.417778
  S     2.707944  4.006534  0.733006
  S     2.667335  7.564699  0.910382
  S     1.904516  4.773689  4.668834
  S     1.709390  8.412483  4.875947
