16  
    
  C    -3.159955  1.950142  1.852865
  C    -3.133658  5.819844  2.091513
  C    -4.322229  1.435630  1.125092
  C    -4.362509  5.277514  1.515515
  N    -2.076929  2.096662  1.122937
  N    -2.185433  6.013211  1.214468
  N    -4.075928  1.261405 -0.147012
  N    -4.309904  5.115651  0.198109
  N    -5.114530  1.716144  3.435775
  N    -4.802303  5.376108  4.035040
  S    -5.731532  1.136837  2.019495
  S    -5.649225  4.981897  2.661820
  S    -2.482698  1.629420 -0.389474
  S    -2.825202  5.753808 -0.292880
  S    -3.504967  2.091974  3.579667
  S    -3.252457  5.777872  3.793394
