16  
    
  C    -2.305532  2.461681  1.948633
  C    -2.330934  6.129771  2.212437
  C    -3.549601  2.074600  1.421109
  C    -3.486028  5.565949  1.517323
  N    -1.322066  2.531009  1.032482
  N    -1.286505  6.276279  1.394182
  N    -3.575072  1.806912  0.119473
  N    -3.274813  5.176983  0.269126
  N    -3.956572  2.395400  3.893641
  N    -4.119697  5.882466  3.977540
  S    -4.887043  2.016511  2.595393
  S    -4.882990  5.437072  2.549350
  S    -2.033898  2.129515 -0.381110
  S    -1.720768  5.659287 -0.123548
  S    -2.396477  2.825897  3.615942
  S    -2.494554  6.175552  3.905203
