16  
    
  C    -4.143574  1.344020  1.941646
  C    -4.082865  5.044403  1.994838
  C    -5.445781  1.222595  1.236681
  C    -5.345344  4.724064  1.416393
  N    -3.081017  1.463219  1.147257
  N    -3.068405  5.008422  1.154934
  N    -5.307101  1.033579 -0.068154
  N    -5.301235  4.435256  0.125426
  N    -6.033474  1.440183  3.705006
  N    -5.718212  5.314172  3.833431
  S    -6.794057  1.158651  2.278974
  S    -6.616052  4.925789  2.522381
  S    -3.702617  1.194494 -0.425925
  S    -3.692117  4.548715 -0.246516
  S    -4.357767  1.563600  3.600439
  S    -4.125509  5.618119  3.612500
