16  
    
  C    -3.283803  1.945203  2.030370
  C    -3.135567  5.443203  2.104555
  C    -4.464023  1.414326  1.371723
  C    -4.271925  4.799625  1.473048
  N    -2.289302  2.115921  1.174374
  N    -2.119938  5.866611  1.310206
  N    -4.394031  1.306142  0.018313
  N    -4.054138  4.665192  0.164068
  N    -5.016535  1.565587  3.936229
  N    -4.861145  5.148725  3.980196
  S    -5.800155  1.155633  2.512594
  S    -5.575108  4.496155  2.570383
  S    -2.844154  1.810989 -0.405314
  S    -2.598263  5.269542 -0.204555
  S    -3.351099  1.872956  3.817668
  S    -3.370983  5.847515  3.757221
