16  
    
  C    -2.765853  2.663302  2.307764
  C    -2.751655  6.002568  1.956075
  C    -3.888882  1.972304  1.722223
  C    -3.896212  5.513375  1.161285
  N    -1.784978  3.029777  1.483803
  N    -1.641286  6.252688  1.281680
  N    -3.712800  1.820360  0.434528
  N    -3.630043  5.513349 -0.133559
  N    -4.381154  2.103301  4.254686
  N    -4.499949  5.408933  3.771117
  S    -5.026422  1.350860  2.893631
  S    -5.176179  5.187566  2.300568
  S    -2.232855  2.454209  0.011427
  S    -2.129621  6.164055 -0.355718
  S    -2.865709  2.763744  4.072625
  S    -3.003822  6.184177  3.676023
