16  
    
  C    -6.074706  0.770065  1.363524
  C    -6.015024  4.433313  1.683321
  C    -7.299370  0.394670  0.713974
  C    -7.182033  3.998256  1.062143
  N    -5.131825  1.177743  0.539171
  N    -5.042585  4.778538  0.869556
  N    -7.194583  0.330295 -0.574802
  N    -7.110366  3.896229 -0.228779
  N    -7.730507  0.234839  3.225561
  N    -7.785867  3.775172  3.528199
  S    -8.540112  0.061531  1.765003
  S    -8.450090  3.301740  2.062488
  S    -5.658099  0.874388 -0.995499
  S    -5.598620  4.451094 -0.677705
  S    -6.104548  0.762695  3.058626
  S    -6.190360  4.303762  3.423602
