16  
    
  C     2.909858  5.204854  3.717953
  C     2.870737  8.764433  3.265183
  C     1.589988  5.270036  3.105328
  C     1.566452  8.381239  2.754942
  N     3.922073  4.996689  2.882371
  N     3.816885  8.786542  2.314003
  N     1.597025  4.737538  1.870587
  N     1.564662  8.013429  1.473706
  N     1.371420  5.469288  5.657878
  N     1.049832  8.887188  5.184233
  S     0.362549  5.400229  4.369713
  S     0.249518  8.452943  3.756604
  S     3.181633  4.645457  1.393757
  S     3.082098  8.108473  0.911733
  S     3.002610  5.490107  5.399984
  S     2.740218  9.102601  5.033648
