16  
    
  C    -6.078101  0.821946  1.389240
  C    -6.073441  4.351460  1.831418
  C    -7.251151  0.164452  0.827278
  C    -7.264340  3.937145  1.064701
  N    -5.236047  1.319947  0.486731
  N    -4.981862  4.685851  1.081983
  N    -7.285107  0.137074 -0.517255
  N    -7.040959  3.883140 -0.268666
  N    -7.599605  0.280527  3.372753
  N    -7.934157  3.796831  3.609791
  S    -8.371106 -0.348839  2.025165
  S    -8.676014  3.556448  2.107204
  S    -5.918878  0.893897 -0.951456
  S    -5.508583  4.449128 -0.476925
  S    -6.111498  0.916550  3.130379
  S    -6.409786  4.474037  3.523260
