16  
    
  C     0.952600  3.814953  2.542530
  C     1.584577  8.008946  3.267000
  C    -0.331647  3.570274  1.898877
  C     0.242796  7.875428  2.656136
  N     1.941809  3.992422  1.656051
  N     2.631348  8.101659  2.426752
  N    -0.157844  3.286187  0.629539
  N     0.276443  7.861937  1.319081
  N    -0.810127  3.552754  4.432635
  N    -0.161400  7.872287  5.171829
  S    -1.637858  3.181629  3.003800
  S    -1.064511  7.894610  3.783300
  S     1.339372  3.716222  0.181075
  S     1.895749  7.980990  0.966654
  S     0.686326  4.102512  4.196478
  S     1.457205  8.050389  5.028156
