16  
    
  C    -4.684883  0.924834  1.418189
  C    -4.857759  4.626238  1.790858
  C    -5.940675  0.648856  0.745873
  C    -6.080440  4.378229  1.079687
  N    -3.611880  1.023719  0.646811
  N    -3.786025  4.703311  1.036893
  N    -5.795236  0.750045 -0.560231
  N    -5.903210  4.285998 -0.240587
  N    -6.498898  0.794831  3.309248
  N    -6.534723  4.355026  3.623709
  S    -7.336780  0.702079  1.787650
  S    -7.421429  4.206439  2.178586
  S    -4.139484  0.969136 -0.925273
  S    -4.249762  4.554338 -0.537244
  S    -4.836528  1.025982  3.115510
  S    -4.923504  4.733220  3.493125
