16  
    
  C    -1.200378  3.274600  2.097731
  C    -1.117248  7.166661  2.630954
  C    -2.443849  2.771607  1.574874
  C    -2.351123  6.800144  1.985321
  N    -0.286383  3.678635  1.205250
  N    -0.080818  7.161771  1.774406
  N    -2.405040  2.559356  0.254850
  N    -2.203621  6.609201  0.651092
  N    -2.779190  2.913131  4.077239
  N    -2.811808  6.615892  4.526230
  S    -3.559445  2.285734  2.771216
  S    -3.662061  6.708169  3.111321
  S    -0.968517  3.265551 -0.270797
  S    -0.624975  6.970551  0.232358
  S    -1.290363  3.585617  3.851214
  S    -1.152981  6.949716  4.363569
