16  
    
  C     2.281115  4.671300  3.167494
  C     2.084966  8.996579  3.397808
  C     1.014409  4.277937  2.562892
  C     0.886237  8.466384  2.743781
  N     3.257151  4.969063  2.300981
  N     3.125972  9.182201  2.624446
  N     0.995146  4.453795  1.253791
  N     1.099222  8.135219  1.472586
  N     0.575430  4.259161  5.064233
  N     0.409211  8.456289  5.295928
  S    -0.313919  3.946108  3.740397
  S    -0.472246  8.339528  3.874585
  S     2.539679  4.965805  0.796712
  S     2.680194  8.591449  1.169258
  S     2.136280  4.724436  4.922015
  S     1.976327  9.031233  5.156376
