16  
    
  C    -4.136368  1.354618  1.951351
  C    -4.062640  5.085780  2.002261
  C    -5.421320  1.205041  1.223706
  C    -5.355557  4.721994  1.403545
  N    -3.093249  1.451133  1.139430
  N    -3.037074  4.996855  1.159942
  N    -5.294118  1.035202 -0.082210
  N    -5.289542  4.430362  0.115281
  N    -6.033214  1.432808  3.744972
  N    -5.712253  5.316762  3.852780
  S    -6.785966  1.149116  2.300355
  S    -6.606986  4.907867  2.521770
  S    -3.712239  1.194088 -0.433992
  S    -3.682117  4.528776 -0.257531
  S    -4.357628  1.576864  3.612367
  S    -4.122902  5.634276  3.622711
