16  
    
  C     2.187261  4.314374  2.991001
  C     2.016191  8.426408  3.101339
  C     1.028218  3.933339  2.287020
  C     0.907577  7.696734  2.600531
  N     3.247737  4.569151  2.212132
  N     3.002965  8.542739  2.249619
  N     1.292883  3.595233  0.994185
  N     1.127813  7.200987  1.381709
  N     0.255522  4.253339  4.817451
  N     0.192096  8.638053  4.923450
  S    -0.398684  3.899780  3.293825
  S    -0.481443  7.727853  3.664286
  S     2.857003  4.021641  0.708428
  S     2.586034  7.665014  0.873919
  S     1.976676  4.561227  4.749430
  S     1.781399  9.104476  4.680108
