16  
    
  C    -1.179647  2.963119  2.266165
  C    -0.962670  6.951322  2.428770
  C    -2.522460  2.824578  1.711436
  C    -2.243039  6.647266  1.857567
  N    -0.163518  3.011697  1.389693
  N    -0.021872  7.077754  1.484792
  N    -2.511639  2.778175  0.377705
  N    -2.240428  6.424844  0.552589
  N    -2.888038  3.143398  4.263360
  N    -2.600753  6.713257  4.431341
  S    -3.742876  2.743221  2.870033
  S    -3.500254  6.561330  3.002173
  S    -0.924011  2.881183 -0.098924
  S    -0.704770  6.870957 -0.007071
  S    -1.219996  3.298682  3.988263
  S    -0.992098  6.997124  4.199418
