16  
    
  C     3.143441  5.124375  3.494101
  C     3.529110  8.938476  3.789015
  C     1.925153  4.716425  2.813168
  C     2.251585  8.819589  3.086077
  N     4.204614  5.018980  2.724032
  N     4.545994  8.783585  2.923303
  N     2.045841  4.632525  1.470448
  N     2.332119  8.652052  1.793817
  N     1.398123  5.144105  5.251295
  N     1.633519  9.192924  5.509855
  S     0.533767  4.746386  3.902306
  S     0.801162  8.979746  4.094153
  S     3.662070  4.679723  1.192586
  S     3.885823  8.688915  1.419267
  S     3.090887  5.222162  5.197185
  S     3.262555  9.258129  5.480815
