16  
    
  C     1.889601  4.606309  3.323105
  C     1.405872  8.124903  3.046930
  C     0.695471  4.081331  2.730044
  C     0.439349  7.297651  2.433444
  N     2.908564  4.682656  2.471084
  N     2.289810  8.589545  2.188123
  N     0.775397  3.657291  1.496047
  N     0.616348  7.130603  1.137759
  N     0.132197  4.552846  5.217904
  N    -0.302765  7.575237  4.793157
  S    -0.735693  4.172035  3.820167
  S    -0.926697  6.962851  3.412299
  S     2.304343  4.093886  0.990994
  S     1.973142  7.923347  0.693373
  S     1.743839  4.859672  5.044478
  S     1.217437  8.241363  4.725026
