16  
    
  C     1.955815  4.969900  3.043974
  C     2.292172  8.441062  3.120853
  C     0.806865  4.382594  2.365416
  C     1.090496  7.941202  2.456983
  N     2.972855  5.327669  2.232010
  N     3.304741  8.834276  2.346149
  N     1.094045  3.944677  1.151607
  N     1.233187  7.917754  1.132129
  N     0.133605  4.459867  4.895149
  N     0.521023  8.206628  4.998555
  S    -0.536209  4.169893  3.371111
  S    -0.253026  7.738416  3.616513
  S     2.532222  4.722392  0.714505
  S     2.839252  8.440888  0.821066
  S     1.678799  5.138678  4.774216
  S     2.086673  8.687578  4.846229
