16  
    
  C     0.006544  3.331633  2.470665
  C    -0.037279  7.130858  2.703264
  C    -1.099191  2.787118  1.807126
  C    -1.249866  6.741938  2.031366
  N     1.090010  3.593856  1.785771
  N     0.973445  7.438144  1.920762
  N    -0.972759  2.732731  0.484490
  N    -1.097411  6.565834  0.736795
  N    -1.832916  2.964289  4.286952
  N    -1.735972  6.612165  4.457387
  S    -2.404256  2.298797  2.883246
  S    -2.568933  6.450491  3.031468
  S     0.594569  3.260486  0.201527
  S     0.411984  7.184880  0.355593
  S    -0.210529  3.512682  4.175774
  S    -0.130404  7.144967  4.415573
