16  
    
  C     0.539132  3.621612  2.729892
  C     0.746565  7.640088  2.657891
  C    -0.625073  3.093146  2.098070
  C    -0.424831  7.180455  2.067017
  N     1.637709  3.770219  1.944529
  N     1.656445  8.038082  1.794349
  N    -0.522777  3.307267  0.788985
  N    -0.412854  7.170241  0.760736
  N    -1.236833  3.289799  4.624772
  N    -0.818607  6.851317  4.479988
  S    -2.021116  2.812610  3.165544
  S    -1.688752  6.584041  3.091590
  S     1.028857  3.582482  0.432927
  S     1.062218  7.766957  0.280783
  S     0.345075  3.619698  4.455605
  S     0.635286  7.649194  4.399862
