16  
    
  C     3.138778  5.121320  3.396496
  C     3.294088  9.188901  3.750369
  C     1.931008  4.712116  2.715834
  C     2.135354  8.856467  2.972853
  N     4.273164  5.179841  2.681849
  N     4.411894  9.408152  3.019079
  N     2.175779  4.471480  1.439959
  N     2.450004  8.684758  1.650389
  N     1.355598  4.973552  5.208656
  N     1.456131  8.756767  5.370506
  S     0.611652  4.492730  3.819673
  S     0.737847  8.738584  3.911903
  S     3.743426  4.821940  1.148549
  S     4.042655  8.955825  1.506714
  S     3.028080  5.261146  5.104455
  S     2.995771  9.281561  5.470340
