16  
    
  C     0.942972  4.114641  2.554774
  C     1.436396  7.814462  3.261657
  C    -0.179427  3.459075  1.876444
  C     0.163942  7.742974  2.646348
  N     2.102421  4.213583  1.851087
  N     2.473563  7.901770  2.474016
  N    -0.005547  3.268798  0.561487
  N     0.275747  7.716776  1.354444
  N    -1.001011  3.660542  4.288287
  N    -0.269378  7.905742  5.117310
  S    -1.630545  3.221905  2.878099
  S    -1.135200  7.727151  3.726982
  S     1.573924  3.802668  0.250730
  S     1.877283  7.786320  0.899601
  S     0.618322  4.086424  4.256270
  S     1.389027  8.037953  4.932327
