16  
    
  C     2.950035  4.832923  3.678728
  C     2.858565  8.807559  3.390060
  C     1.643176  4.945975  3.076186
  C     1.624805  8.436494  2.692329
  N     3.946014  4.888899  2.799052
  N     3.960031  8.763086  2.633235
  N     1.635861  4.874639  1.750351
  N     1.878787  7.995866  1.439379
  N     1.282530  5.502394  5.474896
  N     1.094188  8.735931  5.299905
  S     0.318841  5.249963  4.168455
  S     0.197617  8.503849  3.896203
  S     3.191886  4.833870  1.304915
  S     3.486063  8.221006  1.178468
  S     2.916825  5.340085  5.354978
  S     2.805067  9.032616  5.059473
