16  
    
  C     0.605056  3.617085  2.747320
  C     0.606391  7.644060  2.658570
  C    -0.650828  3.215290  2.097602
  C    -0.546262  7.056797  2.063361
  N     1.565065  3.754158  1.821609
  N     1.540736  8.007436  1.789976
  N    -0.700322  3.468664  0.777883
  N    -0.453118  6.879620  0.754467
  N    -1.067367  3.234984  4.687617
  N    -0.989987  7.219287  4.620962
  S    -1.899347  3.025388  3.268599
  S    -1.777417  6.647364  3.289832
  S     0.886805  3.638964  0.346414
  S     1.041860  7.623235  0.287213
  S     0.577024  3.503080  4.457341
  S     0.547575  7.772398  4.427171
