16  
    
  C     0.835445  4.009137  2.496603
  C     1.522842  8.353241  3.163566
  C    -0.319007  3.510755  1.859097
  C     0.231107  8.179538  2.544191
  N     1.804957  4.363957  1.613834
  N     2.556322  8.469568  2.341031
  N    -0.093578  3.166656  0.591474
  N     0.254255  8.135197  1.203748
  N    -0.906574  3.755831  4.325660
  N    -0.198394  8.180608  5.044569
  S    -1.570573  3.130407  2.983977
  S    -1.080094  7.981675  3.663477
  S     1.462082  3.683970  0.193345
  S     1.916165  8.372706  0.861492
  S     0.699151  4.278186  4.250067
  S     1.438355  8.491006  4.932940
