16  
    
  C    -6.038644  0.741403  1.388227
  C    -6.103271  4.283101  1.791792
  C    -7.215363  0.182982  0.837055
  C    -7.245368  3.877475  1.042249
  N    -5.242567  1.270507  0.456008
  N    -5.075376  4.660815  1.068579
  N    -7.231260  0.138412 -0.483984
  N    -7.033749  3.870060 -0.264401
  N    -7.690411  0.263138  3.397457
  N    -7.824923  3.674722  3.590650
  S    -8.425125 -0.287536  2.014157
  S    -8.658160  3.533684  2.107163
  S    -5.877262  0.956133 -1.027373
  S    -5.487664  4.483730 -0.525951
  S    -6.139460  0.891982  3.088227
  S    -6.361704  4.509555  3.545129
