16  
    
  C    -0.385531  3.189920  2.586939
  C    -0.257296  7.077015  2.356257
  C    -1.618187  2.889275  1.956318
  C    -1.467089  6.656519  1.668633
  N     0.697356  3.324431  1.784750
  N     0.846366  7.224133  1.614413
  N    -1.448367  2.471127  0.684924
  N    -1.321425  6.539462  0.356512
  N    -2.102300  3.237187  4.496046
  N    -2.099757  6.760952  4.221044
  S    -2.879317  2.537561  3.141630
  S    -2.846152  6.588872  2.752633
  S     0.107696  2.922435  0.267569
  S     0.279169  6.810060  0.017572
  S    -0.506778  3.678669  4.270989
  S    -0.489927  7.206812  4.096500
