16  
    
  C    -2.772086  2.318236  1.970627
  C    -2.659616  5.809997  2.052227
  C    -4.036984  2.137436  1.194713
  C    -3.846819  5.308370  1.409255
  N    -1.686886  2.459209  1.220727
  N    -1.624958  5.903404  1.260438
  N    -3.802582  1.967607 -0.105069
  N    -3.737135  5.110847  0.080848
  N    -4.584905  1.885998  3.732263
  N    -4.429555  5.697638  3.919065
  S    -5.375122  1.631387  2.303449
  S    -5.234584  5.301604  2.522534
  S    -2.191616  2.114189 -0.359326
  S    -2.070813  5.431053 -0.221167
  S    -3.007875  2.409414  3.686625
  S    -2.908364  6.222785  3.741308
