16  
    
  C    -4.163109  1.403058  1.738756
  C    -4.130313  5.166229  1.987978
  C    -5.391510  1.196650  1.071164
  C    -5.429250  4.957028  1.337031
  N    -3.054472  1.292013  1.009397
  N    -3.099594  5.214624  1.153909
  N    -5.223773  1.154528 -0.235591
  N    -5.409411  4.766987  0.030352
  N    -6.076662  1.548389  3.522276
  N    -5.876590  5.258826  3.870160
  S    -6.840077  1.263725  2.084234
  S    -6.712027  4.971777  2.424783
  S    -3.602976  1.153753 -0.528497
  S    -3.812831  4.832252 -0.352352
  S    -4.430362  1.543268  3.495481
  S    -4.231745  5.323815  3.693470
