16  
    
  C    -4.288447  1.618733  1.986519
  C    -4.635297  5.224404  1.676943
  C    -5.362064  0.931031  1.386772
  C    -5.813831  4.730103  1.102180
  N    -3.182866  1.751520  1.243970
  N    -3.615185  5.384601  0.831313
  N    -5.155405  0.683001  0.067031
  N    -5.757257  4.504273 -0.206991
  N    -6.236986  1.582824  3.755955
  N    -6.300284  5.182748  3.707209
  S    -6.854092  0.975146  2.355402
  S    -7.098548  4.632575  2.325023
  S    -3.641153  1.153461 -0.303581
  S    -4.122393  4.834407 -0.650217
  S    -4.618742  1.953792  3.640365
  S    -4.631809  5.483683  3.408996
