16  
    
  C    -0.298743  3.347837  2.591139
  C    -0.040127  6.908725  2.450263
  C    -1.355657  2.535407  2.012607
  C    -1.305310  6.547314  1.765829
  N     0.736223  3.547438  1.775628
  N     0.922379  7.294855  1.579422
  N    -1.180887  2.410068  0.698772
  N    -1.167094  6.657881  0.436385
  N    -1.913584  2.873251  4.534203
  N    -1.875581  6.449977  4.281491
  S    -2.656875  2.245049  3.108010
  S    -2.533834  6.013969  2.816335
  S     0.351979  2.947834  0.305127
  S     0.367416  7.095127  0.049642
  S    -0.388189  3.481203  4.322940
  S    -0.339603  6.945743  4.208941
