16  
    
  C    -4.454015  1.623061  1.963672
  C    -4.651426  5.016209  1.698900
  C    -5.601528  0.979162  1.346006
  C    -5.838498  4.434671  1.032964
  N    -3.460595  1.748530  1.090829
  N    -3.590820  5.298135  0.950037
  N    -5.549750  0.824968  0.010765
  N    -5.647025  4.321378 -0.273942
  N    -5.951954  1.053902  3.910931
  N    -6.413701  4.718698  3.528611
  S    -6.801458  0.615951  2.515416
  S    -7.069426  3.965439  2.123053
  S    -4.031176  1.279163 -0.357721
  S    -4.132491  4.920680 -0.562411
  S    -4.384886  1.748493  3.683355
  S    -4.803748  5.163310  3.351205
