16  
    
  C    -1.851687  2.467455  2.204346
  C    -1.874153  6.290987  2.265831
  C    -3.057965  2.010029  1.549743
  C    -3.003669  5.564381  1.699056
  N    -0.838230  2.652899  1.396103
  N    -0.926208  6.589774  1.397814
  N    -2.914190  1.694895  0.271484
  N    -2.940144  5.370362  0.349211
  N    -3.541341  2.174563  4.104331
  N    -3.542550  6.127630  4.173994
  S    -4.337171  1.816821  2.692986
  S    -4.206756  5.290298  2.897199
  S    -1.361762  2.173070 -0.124096
  S    -1.429411  5.906420  0.014047
  S    -1.913316  2.581919  3.928422
  S    -2.044789  6.766053  3.882291
