16  
    
  C     1.002275  4.033202  2.698671
  C     1.036021  7.657746  3.121564
  C    -0.215463  3.388096  2.192546
  C    -0.185827  7.226391  2.542125
  N     1.942250  4.183676  1.773362
  N     2.117940  7.634893  2.325666
  N    -0.132078  2.825014  0.992142
  N    -0.112234  7.027597  1.227580
  N    -0.703023  4.365201  4.566468
  N    -0.604439  7.475115  5.090370
  S    -1.446908  3.416098  3.386493
  S    -1.448375  7.162048  3.668504
  S     1.415711  3.280683  0.414044
  S     1.447108  7.285939  0.795521
  S     0.885910  4.768102  4.304600
  S     0.967484  7.997146  4.834091
