16  
    
  C    -5.458624  1.219461  1.261378
  C    -5.452289  4.840262  1.607529
  C    -6.560292  0.590255  0.628186
  C    -6.653380  4.391804  0.932442
  N    -4.396364  1.461408  0.487111
  N    -4.440120  5.000227  0.761643
  N    -6.424122  0.529503 -0.700092
  N    -6.557141  4.339464 -0.388371
  N    -7.132444  0.639661  3.119253
  N    -7.287557  4.689121  3.341494
  S    -7.786070  0.091959  1.725810
  S    -7.978851  4.110203  1.947098
  S    -4.889792  1.016122 -1.057049
  S    -4.999147  4.753628 -0.772440
  S    -5.611312  1.171177  3.007980
  S    -5.631145  4.928681  3.327085
