16  
    
  C     0.076647  3.301803  2.507158
  C    -0.009996  7.174393  2.746174
  C    -1.159741  2.943557  1.764961
  C    -1.237874  6.706058  1.998995
  N     1.153004  3.571866  1.737050
  N     1.011568  7.457398  1.966113
  N    -0.936863  2.746288  0.464049
  N    -1.105336  6.622631  0.689062
  N    -1.751074  2.975434  4.261217
  N    -1.714947  6.684350  4.515614
  S    -2.398993  2.307133  2.873807
  S    -2.578237  6.463552  3.069534
  S     0.593564  3.299062  0.171266
  S     0.444058  7.148558  0.403491
  S    -0.192483  3.502832  4.150620
  S    -0.127963  7.201253  4.424144
