16  
    
  C     0.177662  3.735312  2.799681
  C     0.315216  7.469496  2.692604
  C    -0.874372  3.055601  2.155903
  C    -0.985527  7.432225  2.089987
  N     1.266712  3.946558  2.060429
  N     1.342521  7.492192  1.834839
  N    -0.713427  2.957136  0.856135
  N    -0.954680  7.505900  0.743537
  N    -1.526829  3.020792  4.590140
  N    -1.373439  7.449397  4.726606
  S    -2.289031  2.739636  3.096586
  S    -2.265995  7.337953  3.329881
  S     0.785205  3.576382  0.484110
  S     0.638255  7.605046  0.332308
  S    -0.019737  3.573854  4.573919
  S     0.254371  7.602508  4.495509
