16  
    
  C    -4.029084  1.389443  1.665354
  C    -4.051036  5.144631  1.957955
  C    -5.347275  1.348007  1.027485
  C    -5.258607  5.023486  1.270705
  N    -2.974404  1.363558  0.873336
  N    -3.022413  5.347534  1.137509
  N    -5.212941  1.104919 -0.269819
  N    -5.239011  5.208494 -0.036321
  N    -5.840779  1.597399  3.553982
  N    -5.868171  4.839600  3.737262
  S    -6.716513  1.319453  2.104976
  S    -6.687836  4.912031  2.269070
  S    -3.535574  1.123186 -0.668555
  S    -3.642938  5.385345 -0.402150
  S    -4.201608  1.678304  3.374545
  S    -4.264126  5.245149  3.683200
