16  
    
  C     0.866322  3.971502  2.535036
  C     1.544902  7.942797  3.319653
  C    -0.289263  3.426000  1.856611
  C     0.292828  7.900641  2.681205
  N     1.983373  4.025986  1.802291
  N     2.544633  7.960558  2.459696
  N    -0.250885  3.397183  0.518917
  N     0.325762  7.819931  1.365635
  N    -0.892371  3.573974  4.346018
  N    -0.225864  7.827625  5.195417
  S    -1.633182  3.179221  2.956280
  S    -1.066733  7.830530  3.776683
  S     1.400952  3.710069  0.223355
  S     1.900702  7.911086  0.848705
  S     0.748824  4.058779  4.258933
  S     1.456183  8.034828  5.060425
