16  
    
  C    -1.579565  2.864348  2.025670
  C    -1.168171  6.785376  2.212476
  C    -2.569134  1.999420  1.389826
  C    -2.473857  6.458792  1.689471
  N    -0.506855  3.151406  1.267991
  N    -0.179592  6.814194  1.295574
  N    -2.375107  1.833210  0.067854
  N    -2.423850  6.234460  0.381669
  N    -3.353195  2.386481  3.868342
  N    -2.832821  6.902370  4.167674
  S    -3.877076  1.639791  2.460280
  S    -3.682643  6.320721  2.880142
  S    -0.830125  2.471007 -0.203614
  S    -0.891776  6.485405 -0.186628
  S    -1.873314  3.167062  3.723102
  S    -1.247535  7.116180  3.884825
