16  
    
  C    -0.798738  3.139803  2.430339
  C    -0.846735  6.556010  2.445827
  C    -2.071045  2.661415  1.836298
  C    -1.990290  6.062960  1.745499
  N     0.208613  3.223381  1.570459
  N     0.279150  6.555739  1.724499
  N    -1.975322  2.475794  0.538005
  N    -1.766224  5.760651  0.470858
  N    -2.428868  2.822608  4.338879
  N    -2.673305  6.365551  4.209896
  S    -3.377735  2.619085  3.026550
  S    -3.377608  5.895970  2.771307
  S    -0.428310  2.884421  0.073423
  S    -0.135769  6.206535  0.189630
  S    -0.884144  3.298082  4.150977
  S    -1.007623  6.625605  4.121850
