16  
    
  C    -1.792563  2.592033  2.382425
  C    -1.751170  6.051184  2.371818
  C    -3.001541  2.208082  1.747128
  C    -2.882414  5.579075  1.631913
  N    -0.690006  2.589471  1.616255
  N    -0.716788  6.385690  1.628417
  N    -2.857913  2.110434  0.432313
  N    -2.680335  5.389020  0.328976
  N    -3.602498  2.356796  4.242954
  N    -3.617651  5.763134  4.221560
  S    -4.380730  2.113885  2.795330
  S    -4.310419  5.363215  2.739756
  S    -1.281936  2.393572  0.055838
  S    -1.092998  5.899045  0.085905
  S    -1.936056  2.619899  4.178317
  S    -2.006011  6.055136  4.184840
