16  
    
  C     2.078846  4.606001  2.989541
  C     2.295269  8.594213  3.121780
  C     0.832974  4.301892  2.328216
  C     1.106054  8.106906  2.462949
  N     3.108634  4.933400  2.181770
  N     3.347975  8.632119  2.306379
  N     0.922490  4.072182  1.015494
  N     1.183806  7.776101  1.194308
  N     0.324363  4.387429  4.897862
  N     0.432706  8.422795  4.904426
  S    -0.465353  3.920011  3.446946
  S    -0.212362  7.771822  3.541891
  S     2.496365  4.505183  0.673830
  S     2.794398  8.163850  0.779979
  S     1.879862  4.903492  4.609878
  S     2.035759  8.881745  4.835454
