16  
    
  C    -5.433518  1.026426  1.276558
  C    -5.367491  4.776759  1.553175
  C    -6.598012  0.575325  0.594708
  C    -6.555687  4.298849  0.859743
  N    -4.478140  1.443077  0.467042
  N    -4.368947  5.160966  0.781998
  N    -6.405433  0.488021 -0.723644
  N    -6.404535  4.289723 -0.445675
  N    -7.181262  0.465105  3.095200
  N    -7.229939  4.456344  3.357014
  S    -7.901090  0.109178  1.631417
  S    -7.940855  4.098879  1.885599
  S    -4.901946  1.102966 -1.061882
  S    -4.871877  4.891016 -0.779417
  S    -5.610854  1.220121  3.034928
  S    -5.694155  5.086507  3.203474
