16  
    
  C     0.639967  3.556280  2.674497
  C     0.638539  7.703493  2.660494
  C    -0.660863  3.292161  2.173200
  C    -0.542391  6.991419  2.103025
  N     1.629856  3.872212  1.852809
  N     1.608593  8.038761  1.803473
  N    -0.706382  3.433641  0.861095
  N    -0.501846  6.841031  0.770799
  N    -1.031259  3.239916  4.707383
  N    -1.027226  7.296228  4.631871
  S    -1.945281  3.072305  3.326713
  S    -1.800118  6.631844  3.290113
  S     0.906716  3.654498  0.314456
  S     0.978699  7.525481  0.319598
  S     0.618048  3.494982  4.411320
  S     0.546488  7.826068  4.442947
