16  
    
  C     3.497459  5.425350  3.591927
  C     3.532563  9.021145  3.497232
  C     2.276583  4.936421  2.958753
  C     2.399659  8.439914  2.780726
  N     4.504073  5.464052  2.749841
  N     4.455624  9.460988  2.686170
  N     2.305269  4.872543  1.623913
  N     2.608192  8.426724  1.448037
  N     1.776338  4.904191  5.416708
  N     1.829999  8.700405  5.406550
  S     0.937909  4.667889  4.012582
  S     1.099493  8.102616  4.044816
  S     3.846233  5.266724  1.235267
  S     4.065887  9.098238  1.154334
  S     3.364991  5.382310  5.302537
  S     3.316237  9.377959  5.212588
