16  
    
  C     0.067922  3.303344  2.504068
  C    -0.010942  7.169749  2.746905
  C    -1.152396  2.929381  1.769764
  C    -1.242992  6.710190  1.999079
  N     1.148629  3.575396  1.744934
  N     1.007061  7.455311  1.963676
  N    -0.941614  2.742708  0.464851
  N    -1.105539  6.613927  0.696070
  N    -1.762100  2.974447  4.263888
  N    -1.715916  6.675054  4.506638
  S    -2.400077  2.304857  2.876053
  S    -2.577668  6.462288  3.063619
  S     0.593234  3.294427  0.175642
  S     0.439029  7.153326  0.397691
  S    -0.194507  3.504045  4.151872
  S    -0.126851  7.194423  4.421986
