16  
    
  C    -2.569510  2.523189  2.361101
  C    -2.716952  5.831191  2.054045
  C    -3.684599  1.833884  1.723699
  C    -3.883343  5.394783  1.309922
  N    -1.659977  2.919688  1.470692
  N    -1.709706  6.120807  1.271633
  N    -3.623727  1.776350  0.396260
  N    -3.782887  5.430749  0.026659
  N    -4.392948  2.020112  4.201125
  N    -4.542658  5.525345  3.790039
  S    -5.068611  1.411628  2.778258
  S    -5.153191  4.932746  2.340840
  S    -2.233338  2.592006 -0.034710
  S    -2.199416  5.806158 -0.294751
  S    -2.821971  2.552446  4.078069
  S    -2.875898  5.851135  3.772038
