16  
    
  C     0.505413  3.726466  3.084771
  C     1.077906  7.503551  2.633951
  C    -0.531048  3.210942  2.223410
  C    -0.053658  6.991301  1.977288
  N     1.580288  4.162710  2.453118
  N     2.085278  7.953572  1.850766
  N    -0.144695  2.989215  0.949063
  N    -0.032173  6.943995  0.637389
  N    -1.380743  3.089748  4.620781
  N    -0.721583  6.934788  4.539571
  S    -1.873861  2.523498  3.113230
  S    -1.397381  6.548764  3.078257
  S     1.319940  3.855870  0.824802
  S     1.472279  7.610812  0.289885
  S     0.096275  3.809242  4.734407
  S     0.833232  7.565515  4.443629
