16  
    
  C     2.599995  4.955930  3.590473
  C     2.246439  8.852775  3.392136
  C     1.376161  4.404065  3.061951
  C     1.244581  7.977220  2.788393
  N     3.562138  5.293306  2.709696
  N     3.297932  9.118458  2.610944
  N     1.474996  4.099680  1.751580
  N     1.579590  7.486668  1.630401
  N     0.992865  4.912979  5.572794
  N     0.486948  8.207378  5.240188
  S     0.192850  4.203705  4.338406
  S    -0.075267  7.598007  3.803282
  S     2.999461  4.600786  1.283576
  S     2.942667  8.290830  1.188326
  S     2.485332  5.383937  5.279517
  S     1.902993  9.099512  5.095906
