16  
    
  C     2.051453  4.988599  3.140096
  C     2.090936  8.735172  3.404470
  C     0.881333  4.555078  2.457038
  C     0.864889  8.368672  2.758665
  N     3.087376  5.278406  2.384279
  N     3.065297  8.869681  2.528557
  N     1.086954  4.452148  1.144466
  N     0.901773  8.301381  1.434790
  N     0.316306  4.402580  5.009803
  N     0.176379  8.587318  5.142466
  S    -0.501081  4.160526  3.522480
  S    -0.507157  8.075390  3.747407
  S     2.626536  4.926604  0.823726
  S     2.439372  8.653480  0.977139
  S     1.895900  4.822124  4.830763
  S     1.817744  8.907185  5.147307
