16  
    
  C     0.718154  3.826163  2.857285
  C     0.588219  7.579920  2.703981
  C    -0.488686  3.340424  2.294032
  C    -0.579470  6.930896  2.233325
  N     1.717326  3.982636  1.953387
  N     1.503639  7.833231  1.794044
  N    -0.517053  3.313850  0.977404
  N    -0.574055  6.563618  0.949536
  N    -1.007551  3.587167  4.769138
  N    -0.900335  7.287374  4.776783
  S    -1.873384  3.229993  3.418114
  S    -1.782210  6.640310  3.519205
  S     1.026220  3.679810  0.448865
  S     0.955320  7.154071  0.415662
  S     0.639937  3.927002  4.572245
  S     0.472218  8.102415  4.339004
