16  
    
  C    -3.776149  1.980630  1.950651
  C    -3.548360  5.438332  1.909135
  C    -4.698765  1.040208  1.312538
  C    -4.781944  4.884748  1.403211
  N    -2.809804  2.339502  1.115292
  N    -2.591379  5.486732  1.005468
  N    -4.367263  0.792725  0.049285
  N    -4.759853  4.587628  0.092892
  N    -5.498863  1.352120  3.721069
  N    -5.200904  5.345832  3.956031
  S    -6.005703  0.489192  2.337244
  S    -6.048464  4.942652  2.527754
  S    -3.011969  1.676723 -0.334086
  S    -3.185719  4.905235 -0.431402
  S    -4.216487  2.426459  3.563674
  S    -3.620094  5.806042  3.680027
