16  
    
  C     2.895843  5.362762  3.526418
  C     2.906722  8.708517  3.439058
  C     1.791489  4.771738  2.840096
  C     1.830370  8.094288  2.685812
  N     3.966187  5.464462  2.751380
  N     3.849182  9.146930  2.660861
  N     1.882786  4.737450  1.511646
  N     1.963457  8.148908  1.343666
  N     1.043804  5.079730  5.227663
  N     1.068545  8.343569  5.194607
  S     0.433041  4.461711  3.819393
  S     0.449582  7.894524  3.731363
  S     3.360840  5.272794  1.187139
  S     3.465952  8.788916  1.071253
  S     2.729589  5.341328  5.259776
  S     2.656324  8.947744  5.105855
