16  
    
  C    -3.714773  1.990872  1.833386
  C    -3.632746  5.554486  1.842879
  C    -4.692063  1.025267  1.284387
  C    -4.854613  5.122254  1.207723
  N    -2.699191  2.343443  1.007812
  N    -2.626772  5.595532  0.970733
  N    -4.412157  0.748734  0.010129
  N    -4.803258  4.976286 -0.118700
  N    -5.448688  1.388569  3.751983
  N    -5.284582  5.469584  3.756698
  S    -5.945332  0.569564  2.421000
  S    -6.169374  4.950834  2.364936
  S    -2.977640  1.507720 -0.432407
  S    -3.195169  5.412754 -0.511765
  S    -4.066763  2.286051  3.539111
  S    -3.645360  5.758662  3.577701
