16  
    
  C     2.922348  5.014828  3.647314
  C     2.908200  8.696156  3.427012
  C     1.596997  4.857642  3.036907
  C     1.686899  8.357234  2.750260
  N     3.931123  4.822993  2.793352
  N     4.008108  8.745722  2.680872
  N     1.634844  4.849666  1.703072
  N     1.858467  8.104369  1.444660
  N     1.245425  5.459878  5.486590
  N     1.083571  8.721990  5.299153
  S     0.313065  5.208804  4.133648
  S     0.254801  8.471158  3.844336
  S     3.269994  4.894349  1.333743
  S     3.526951  8.258809  1.199810
  S     2.903444  5.289213  5.320399
  S     2.766162  9.052125  5.140749
