16  
    
  C    -2.123026  2.463723  1.951433
  C    -2.099228  5.733373  2.192840
  C    -3.330335  1.971694  1.409892
  C    -3.409770  5.558631  1.530142
  N    -1.115025  2.560625  1.098889
  N    -1.067121  5.761597  1.411718
  N    -3.329151  1.769822  0.088252
  N    -3.312625  5.413113  0.207721
  N    -3.831143  2.352688  3.881109
  N    -3.909004  5.873719  4.049196
  S    -4.684596  1.939030  2.534667
  S    -4.693669  5.421834  2.663304
  S    -1.765577  2.058796 -0.381294
  S    -1.754271  5.773320 -0.112341
  S    -2.210211  2.562154  3.673814
  S    -2.258416  6.143030  3.894770
