16  
    
  C     1.900455  4.236052  3.345148
  C     1.834039  7.778023  3.059846
  C     0.630267  3.961195  2.681399
  C     0.571479  7.494453  2.466522
  N     2.928582  4.334154  2.505914
  N     2.765279  8.044720  2.166985
  N     0.658652  4.170137  1.350229
  N     0.557637  7.599230  1.155863
  N     0.126732  3.933732  5.239272
  N     0.118875  7.292493  4.986333
  S    -0.726985  3.883668  3.803567
  S    -0.732664  7.092999  3.534543
  S     2.291922  4.243809  0.967879
  S     2.037694  7.990567  0.656409
  S     1.825757  4.225539  4.994965
  S     1.717916  7.745790  4.792864
