16  
    
  C     2.048924  4.978040  3.143667
  C     2.093903  8.720730  3.402204
  C     0.878350  4.571128  2.455142
  C     0.871359  8.362576  2.753112
  N     3.081726  5.275240  2.385208
  N     3.062526  8.865251  2.525315
  N     1.092834  4.446503  1.145130
  N     0.901119  8.309786  1.431424
  N     0.304619  4.400749  5.016761
  N     0.176283  8.585549  5.145123
  S    -0.498149  4.163612  3.518871
  S    -0.507210  8.069291  3.747466
  S     2.629479  4.930090  0.824003
  S     2.438004  8.653809  0.979912
  S     1.888581  4.831358  4.825996
  S     1.816932  8.906038  5.142239
