16  
    
  C    -4.836015  1.006838  1.703837
  C    -4.725407  4.708162  1.809422
  C    -5.969315  0.395853  1.065120
  C    -5.865135  4.050757  1.137651
  N    -3.810455  1.361447  0.926530
  N    -3.759262  5.107994  0.967709
  N    -5.849772  0.216616 -0.237286
  N    -5.707439  3.832303 -0.167842
  N    -6.778437  0.952339  3.507966
  N    -6.627576  4.563700  3.581916
  S    -7.312824  0.104566  2.128819
  S    -7.232031  3.894685  2.161543
  S    -4.334693  0.861930 -0.614744
  S    -4.251387  4.494719 -0.499941
  S    -5.221763  1.473531  3.361644
  S    -5.089684  5.168671  3.481666
