16  
    
  C     2.076085  5.032611  3.143867
  C     2.042914  8.874617  3.389927
  C     0.888384  4.417044  2.466101
  C     0.809468  8.437205  2.737937
  N     3.144729  5.305470  2.353136
  N     3.105406  8.957334  2.569106
  N     0.988700  4.482094  1.135154
  N     0.913980  8.206486  1.450391
  N     0.391439  4.402740  4.912363
  N     0.212603  8.602645  5.189115
  S    -0.490824  4.125482  3.559270
  S    -0.519919  8.145705  3.754439
  S     2.593260  4.896979  0.821090
  S     2.471604  8.643290  0.995170
  S     2.000580  4.735079  4.903350
  S     1.830769  8.919515  5.179226
