16  
    
  C    -3.391886  1.539148  2.071339
  C    -3.126750  5.457079  2.069453
  C    -4.661945  1.256949  1.464106
  C    -4.362611  5.115426  1.489884
  N    -2.340352  1.545276  1.229197
  N    -2.105998  5.518075  1.211189
  N    -4.554735  1.027756  0.151020
  N    -4.319367  4.790308  0.181291
  N    -5.195773  1.597035  4.027391
  N    -4.945301  5.223936  3.939681
  S    -5.960222  1.183819  2.610980
  S    -5.726136  4.944654  2.508415
  S    -2.957537  1.202354 -0.272569
  S    -2.727454  5.120300 -0.251217
  S    -3.565329  1.747658  3.844002
  S    -3.361310  5.674335  3.732985
