16  
    
  C     3.132918  5.122684  3.373677
  C     3.013941  8.928911  3.847096
  C     1.900016  4.637365  2.706091
  C     1.756492  8.469113  3.329034
  N     4.214768  5.082571  2.580925
  N     3.971983  9.127639  2.935091
  N     2.025135  4.548724  1.380085
  N     1.736199  8.228788  1.993762
  N     1.160651  5.036011  5.041246
  N     1.378780  8.981486  5.842274
  S     0.461114  4.665872  3.586680
  S     0.460900  8.738167  4.480436
  S     3.630916  4.873706  1.029986
  S     3.333358  8.615349  1.495239
  S     2.815572  5.259613  5.119820
  S     3.018637  9.352342  5.573795
