16  
    
  C     2.864600  5.210604  3.812617
  C     2.423243  8.498555  3.436452
  C     1.667616  4.614791  3.267571
  C     1.309308  7.945103  2.713508
  N     3.854059  5.385185  2.938235
  N     3.462684  8.775590  2.618081
  N     1.863986  4.112273  2.039603
  N     1.436209  7.876292  1.392973
  N     1.233214  5.064243  5.764174
  N     0.363561  8.510750  4.974978
  S     0.294800  4.706773  4.508819
  S    -0.133221  7.562663  3.681765
  S     3.322699  4.735661  1.509626
  S     2.969495  8.299254  1.113593
  S     2.733028  5.717537  5.512441
  S     1.944093  8.933913  5.114110
