16  
    
  C     2.074424  4.258969  3.337199
  C     1.704986  7.711323  3.064587
  C     0.722085  4.020565  2.721361
  C     0.421596  7.504656  2.403543
  N     3.015181  4.832058  2.518007
  N     2.718138  7.895792  2.241223
  N     0.865097  4.075842  1.376165
  N     0.563896  7.479364  1.098964
  N     0.251144  3.993118  5.169317
  N    -0.104249  7.484135  4.864500
  S    -0.600023  3.684392  3.829238
  S    -0.939605  7.317691  3.446725
  S     2.363050  4.564205  1.016730
  S     2.092942  7.809644  0.673392
  S     1.879661  4.373783  5.098203
  S     1.517493  7.634050  4.773864
