16  
    
  C    -4.175500  1.392869  1.757933
  C    -4.149702  5.139809  1.974329
  C    -5.381016  1.221269  1.067407
  C    -5.418891  4.949186  1.343486
  N    -3.071094  1.310127  1.004028
  N    -3.106157  5.198074  1.144136
  N    -5.241221  1.141176 -0.240673
  N    -5.408010  4.718891  0.045768
  N    -6.069138  1.553391  3.534939
  N    -5.872569  5.280067  3.864609
  S    -6.836225  1.260419  2.103509
  S    -6.700033  4.981137  2.436864
  S    -3.588927  1.152915 -0.529581
  S    -3.813519  4.823136 -0.364966
  S    -4.451764  1.533238  3.504226
  S    -4.241074  5.333717  3.710302
