16  
    
  C    -3.411432  1.745287  1.613570
  C    -3.679208  5.563729  1.748737
  C    -4.589220  1.248594  1.055296
  C    -4.890551  5.157127  1.046849
  N    -2.368329  1.892413  0.818279
  N    -2.669687  5.834961  0.915015
  N    -4.415260  0.878246 -0.213638
  N    -4.730818  4.979914 -0.250829
  N    -5.106648  1.465605  3.514129
  N    -5.486485  5.174666  3.508794
  S    -5.845793  0.805760  2.169867
  S    -6.250146  4.852792  2.053467
  S    -2.851883  1.249889 -0.602318
  S    -3.192730  5.549436 -0.664920
  S    -3.571462  2.101826  3.289237
  S    -3.857995  5.624173  3.471081
