16  
    
  C    -2.673016  2.566093  2.120318
  C    -2.488186  6.173348  2.034539
  C    -3.867938  2.054182  1.540161
  C    -3.618509  5.551132  1.352746
  N    -1.660387  2.828719  1.312554
  N    -1.445895  6.548247  1.325214
  N    -3.701073  1.691930  0.285518
  N    -3.426415  5.619089  0.041165
  N    -4.373837  2.439583  4.064225
  N    -4.481483  6.132840  3.726769
  S    -5.119198  1.838043  2.726953
  S    -5.104369  5.339748  2.355088
  S    -2.186972  2.237363 -0.206141
  S    -1.884005  6.117198 -0.223295
  S    -2.766059  2.853218  3.849747
  S    -2.903999  6.652288  3.697361
