16  
    
  C    -3.755401  1.693768  1.777919
  C    -3.983446  5.468815  1.842843
  C    -5.002647  1.350769  1.191867
  C    -5.138447  5.181193  1.056241
  N    -2.697741  1.811907  0.992078
  N    -2.898155  5.760583  1.116307
  N    -4.984823  1.334652 -0.144270
  N    -4.938152  5.130877 -0.261000
  N    -5.473148  1.561471  3.675766
  N    -5.745860  4.592247  3.504149
  S    -6.348055  1.190437  2.313224
  S    -6.447256  4.663242  2.032483
  S    -3.408980  1.586718 -0.599602
  S    -3.364549  5.645600 -0.449383
  S    -3.854989  1.741229  3.541091
  S    -4.271345  5.310711  3.627361
