16  
    
  C    -3.127348  1.906448  1.784710
  C    -3.156807  5.874384  2.052498
  C    -4.252959  1.354149  1.016156
  C    -4.409649  5.474523  1.462661
  N    -2.145214  2.343102  1.003263
  N    -2.159229  6.019410  1.159805
  N    -3.980398  1.179664 -0.269710
  N    -4.380268  5.401422  0.145890
  N    -5.043279  1.567438  3.444904
  N    -4.665491  5.375639  3.983778
  S    -5.683326  1.078113  2.001913
  S    -5.617091  5.226692  2.657565
  S    -2.450573  1.869392 -0.544170
  S    -2.883385  5.782985 -0.328210
  S    -3.510082  2.206404  3.411962
  S    -3.102616  5.900485  3.733677
