16  
    
  C     3.215646  4.946557  3.491871
  C     3.303621  9.240132  3.746480
  C     1.963815  4.689442  2.762382
  C     2.159972  8.865739  2.966567
  N     4.213463  5.171679  2.660749
  N     4.465638  9.262471  3.128263
  N     2.102535  4.512934  1.435041
  N     2.453316  8.613440  1.645934
  N     1.398071  5.125406  5.202597
  N     1.407204  8.869626  5.507127
  S     0.567138  4.572258  3.792092
  S     0.663843  8.783027  3.968068
  S     3.744068  4.800532  1.148682
  S     4.136964  9.013410  1.508788
  S     3.061029  5.243979  5.156237
  S     3.114206  9.261569  5.394854
