16  
    
  C    -2.161415  2.430042  1.936581
  C    -2.193334  5.776237  2.226878
  C    -3.452935  2.041437  1.384513
  C    -3.385572  5.484403  1.570531
  N    -1.180793  2.606455  1.021445
  N    -1.096103  5.804866  1.420640
  N    -3.375695  1.753280  0.092445
  N    -3.327827  5.382546  0.248637
  N    -3.850525  2.355491  3.883154
  N    -3.959849  5.908241  4.030623
  S    -4.694275  1.964681  2.545844
  S    -4.682084  5.426678  2.642346
  S    -1.807097  2.048942 -0.386804
  S    -1.761529  5.767932 -0.148867
  S    -2.234636  2.605474  3.706554
  S    -2.336031  6.142549  3.910960
