16  
    
  C     1.093374  4.131894  2.637819
  C     1.115022  7.772106  3.170205
  C    -0.139223  3.466584  2.092601
  C    -0.190742  7.407179  2.585078
  N     2.112218  4.282977  1.798701
  N     2.097132  7.876597  2.306053
  N     0.088302  2.891919  0.932654
  N    -0.047113  7.231259  1.291607
  N    -0.765116  4.318881  4.465850
  N    -0.590547  7.640816  5.054094
  S    -1.469755  3.354044  3.237971
  S    -1.469676  7.322892  3.687135
  S     1.569764  3.431393  0.389714
  S     1.509823  7.448239  0.767476
  S     0.780067  4.737756  4.172856
  S     0.981311  8.048273  4.853246
