16  
    
  C    -1.513171  2.768585  2.114318
  C    -1.210673  6.740360  2.171469
  C    -2.550104  2.098292  1.452357
  C    -2.458003  6.324464  1.606776
  N    -0.518600  3.164654  1.284631
  N    -0.213066  6.820180  1.277415
  N    -2.242421  1.692807  0.203808
  N    -2.535717  6.220307  0.267972
  N    -3.371511  2.426836  3.840366
  N    -2.909679  6.685030  4.235510
  S    -3.914320  1.635756  2.504737
  S    -3.730387  6.272625  2.859036
  S    -0.821360  2.411819 -0.180191
  S    -0.918625  6.349162 -0.203380
  S    -1.864553  3.053944  3.753656
  S    -1.304915  7.101120  3.952958
