16  
    
  C     0.117922  3.559314  2.687221
  C     0.319461  7.511557  2.673892
  C    -1.122871  3.059815  2.011233
  C    -0.933035  7.235272  2.045995
  N     1.154890  3.810961  1.868625
  N     1.329930  7.584575  1.815664
  N    -0.855835  2.705683  0.740674
  N    -0.880025  7.155204  0.726146
  N    -1.782320  3.277636  4.474311
  N    -1.498554  7.207762  4.520902
  S    -2.342517  2.509132  3.107810
  S    -2.254872  7.147704  3.073597
  S     0.647825  3.295546  0.363133
  S     0.754767  7.425520  0.228847
  S    -0.240248  3.976951  4.333549
  S     0.133062  7.464189  4.445340
