16  
    
  C    -0.411135  3.578456  2.882672
  C    -0.682870  6.862906  2.701178
  C    -1.595657  3.040074  2.195648
  C    -1.805878  6.399561  1.987692
  N     0.617014  3.701138  2.047362
  N     0.349127  7.139875  1.916725
  N    -1.380819  2.689415  0.926252
  N    -1.669175  6.194201  0.699240
  N    -2.113885  3.190335  4.698889
  N    -2.620103  6.600559  4.296238
  S    -2.927826  2.928226  3.295539
  S    -3.223674  6.044505  2.829451
  S     0.147972  3.242129  0.549838
  S    -0.087719  6.633664  0.398910
  S    -0.559824  3.753534  4.588879
  S    -1.015815  7.066996  4.331415
