16  
    
  C    -3.593395  1.801213  1.812391
  C    -3.564310  5.700328  1.778031
  C    -4.581952  0.987154  1.240843
  C    -4.805310  5.294256  1.178202
  N    -2.629023  2.188948  1.023108
  N    -2.564815  5.872386  0.917210
  N    -4.387917  0.622299 -0.000031
  N    -4.771054  5.304558 -0.147805
  N    -5.357510  1.510385  3.639472
  N    -5.389998  5.216504  3.673655
  S    -5.902604  0.687770  2.289631
  S    -6.158254  4.948548  2.197141
  S    -3.007166  1.452360 -0.416873
  S    -3.177238  5.588293 -0.572557
  S    -3.810673  2.181203  3.457805
  S    -3.790158  5.713106  3.492270
