16  
    
  C    -3.172515  1.969451  1.856028
  C    -3.148192  5.803994  2.085432
  C    -4.300359  1.432846  1.124092
  C    -4.369702  5.269757  1.507393
  N    -2.056903  2.087576  1.141636
  N    -2.200362  6.016297  1.220335
  N    -4.081414  1.290440 -0.158792
  N    -4.319372  5.093625  0.187526
  N    -5.125128  1.728173  3.452037
  N    -4.814761  5.363702  4.021782
  S    -5.734307  1.137475  2.041115
  S    -5.644589  4.962375  2.655454
  S    -2.489388  1.610071 -0.377764
  S    -2.816449  5.741976 -0.270485
  S    -3.508935  2.077451  3.577657
  S    -3.238473  5.782256  3.797026
