16  
    
  C    -3.648287  1.762821  2.057665
  C    -3.419894  5.283522  2.044812
  C    -4.712200  1.097325  1.345372
  C    -4.668321  4.876988  1.469866
  N    -2.574639  2.122960  1.335288
  N    -2.431957  5.361359  1.132678
  N    -4.402987  0.739148  0.100431
  N    -4.640366  4.568481  0.151197
  N    -5.608860  1.505554  3.687007
  N    -5.081472  5.336808  4.047522
  S    -6.153464  0.703109  2.256455
  S    -5.937971  4.928373  2.664746
  S    -2.921642  1.423482 -0.200878
  S    -3.070787  4.848267 -0.310846
  S    -3.987690  2.111926  3.730626
  S    -3.465690  5.757602  3.791152
