16  
    
  C    -3.727040  1.864749  2.032675
  C    -3.440156  5.340983  2.003492
  C    -4.729000  1.078880  1.334183
  C    -4.713572  4.815858  1.508274
  N    -2.727290  2.164420  1.244010
  N    -2.454030  5.419458  1.152002
  N    -4.369632  0.753324  0.112606
  N    -4.660093  4.560273  0.192492
  N    -5.611916  1.507563  3.657181
  N    -5.113872  5.299816  4.018788
  S    -6.088854  0.618316  2.238663
  S    -5.975530  4.934296  2.680936
  S    -2.949901  1.543486 -0.225200
  S    -3.108577  4.796643 -0.273997
  S    -4.058540  2.194352  3.697438
  S    -3.520312  5.735869  3.649572
