16  
    
  C    -2.675038  2.244875  2.032264
  C    -2.579962  5.809482  2.065175
  C    -3.906295  1.879253  1.296076
  C    -3.819013  5.410913  1.418339
  N    -1.647140  2.242873  1.194745
  N    -1.457342  5.829559  1.391612
  N    -3.817297  1.923404 -0.022083
  N    -3.538890  5.036091  0.184479
  N    -4.533605  1.915833  3.829586
  N    -4.461799  5.740365  3.876132
  S    -5.286712  1.806650  2.316027
  S    -5.228064  5.290004  2.423425
  S    -2.175111  2.108700 -0.370020
  S    -2.011053  5.405723 -0.189079
  S    -2.926057  2.454573  3.747361
  S    -2.825981  6.192774  3.725554
