16  
    
  C    -0.615208  3.249816  2.830697
  C    -1.291175  6.591654  2.640743
  C    -1.856165  2.820820  2.160747
  C    -2.449057  6.135460  1.853531
  N     0.427218  3.199658  2.017135
  N    -0.191439  6.921330  1.998841
  N    -1.707992  2.384720  0.917180
  N    -2.108903  6.040153  0.593556
  N    -2.409067  3.134491  4.692675
  N    -3.135745  6.100962  4.248869
  S    -3.184450  2.775243  3.244740
  S    -3.829563  5.681748  2.764858
  S    -0.144383  2.722718  0.519941
  S    -0.576564  6.593904  0.429720
  S    -0.790680  3.573983  4.527474
  S    -1.594398  6.708639  4.303583
