16  
    
  C    -0.420707  3.402924  2.650109
  C    -0.232781  6.964939  2.513430
  C    -1.376038  2.516982  2.074907
  C    -1.372835  6.537826  1.814895
  N     0.715475  3.588469  1.961447
  N     0.832193  7.221497  1.762032
  N    -1.086977  2.107538  0.854906
  N    -1.185310  6.289752  0.525802
  N    -2.197073  3.080249  4.448304
  N    -2.234239  6.921922  4.227407
  S    -2.828713  2.293224  3.127850
  S    -2.860876  6.487255  2.739290
  S     0.367271  2.809173  0.493607
  S     0.373249  6.634977  0.233785
  S    -0.722439  3.731287  4.314230
  S    -0.639219  7.433559  4.224530
