16  
    
  C     3.021938  5.007842  3.230905
  C     2.971971  9.244730  3.771668
  C     1.796791  4.503999  2.614850
  C     1.809264  8.722774  3.117506
  N     3.967047  5.287160  2.345663
  N     4.042750  9.398557  2.952356
  N     1.860815  4.382342  1.303928
  N     2.018131  8.396227  1.865034
  N     1.147429  5.003447  5.077546
  N     1.125727  8.697102  5.524323
  S     0.476359  4.333562  3.757982
  S     0.485510  8.234099  4.056748
  S     3.364068  4.779335  0.834561
  S     3.463954  8.953253  1.400809
  S     2.738900  5.422422  4.916649
  S     2.585329  9.445482  5.488024
