16  
    
  C     2.948523  5.470372  3.881630
  C     2.394251  8.602327  3.263154
  C     1.785831  4.749848  3.385549
  C     1.200646  8.046595  2.608086
  N     3.932911  5.567514  3.007827
  N     3.504279  8.700106  2.518651
  N     1.830205  4.418182  2.095684
  N     1.471714  7.709397  1.334537
  N     1.151440  5.471701  5.763095
  N     0.614564  8.385375  5.082211
  S     0.420163  4.814345  4.417019
  S    -0.142069  7.900679  3.701023
  S     3.370579  4.744071  1.685000
  S     2.979420  8.242983  1.006737
  S     2.791404  5.767423  5.586990
  S     2.146606  8.803032  4.987294
