16  
    
  C    -3.706079  1.969565  1.815064
  C    -3.616100  5.530372  1.802458
  C    -4.623042  1.008303  1.253205
  C    -4.887111  5.200138  1.146545
  N    -2.695104  2.307664  1.043705
  N    -2.606518  5.725499  0.992140
  N    -4.410708  0.693574 -0.028996
  N    -4.781978  5.112152 -0.191193
  N    -5.399067  1.450354  3.691553
  N    -5.352260  5.398789  3.692242
  S    -5.974636  0.574356  2.397967
  S    -6.123105  4.965325  2.353180
  S    -2.976163  1.475138 -0.460496
  S    -3.203972  5.476618 -0.557241
  S    -3.961994  2.270597  3.572600
  S    -3.703580  5.746259  3.574856
