16  
    
  C     1.987948  4.191595  3.092771
  C     2.011898  7.989990  3.107360
  C     0.620774  4.133393  2.526013
  C     0.766064  7.622988  2.419980
  N     2.993606  4.257410  2.213032
  N     3.112580  8.113396  2.350037
  N     0.687221  3.849802  1.236557
  N     0.901994  7.466486  1.085601
  N     0.222183  4.234300  4.996479
  N     0.204306  7.581483  4.912828
  S    -0.649776  3.972209  3.638771
  S    -0.565903  7.266955  3.470364
  S     2.324526  3.933859  0.697235
  S     2.540280  7.869225  0.800923
  S     1.854490  4.653766  4.780648
  S     1.759711  8.081946  4.854863
