16  
    
  C     3.093137  5.016134  3.440687
  C     3.215645  8.688134  3.747785
  C     1.831564  4.711346  2.840097
  C     1.836153  8.552629  3.224933
  N     4.140136  5.099688  2.618769
  N     4.178441  8.643822  2.808021
  N     1.945323  4.324026  1.571775
  N     1.806831  8.266604  1.915293
  N     1.414325  5.003822  5.415482
  N     1.811373  9.385835  5.726426
  S     0.528072  4.618559  4.085061
  S     0.751066  9.076332  4.532107
  S     3.561389  4.736094  1.080806
  S     3.466161  8.188516  1.391939
  S     3.048388  5.327411  5.161405
  S     3.422732  9.321057  5.365173
