16  
    
  C    -1.544782  2.856396  2.008147
  C    -1.125379  6.876247  2.233810
  C    -2.666086  2.263680  1.345931
  C    -2.418748  6.416791  1.678510
  N    -0.465711  3.139340  1.230729
  N    -0.114695  6.973271  1.378921
  N    -2.362528  1.961724  0.074291
  N    -2.399724  6.254852  0.344334
  N    -3.291588  2.418193  3.793375
  N    -2.736207  7.005230  4.187191
  S    -3.869198  1.663356  2.445974
  S    -3.664958  6.461886  2.884073
  S    -0.906736  2.629446 -0.278209
  S    -0.836437  6.639350 -0.093710
  S    -1.911984  3.313995  3.663289
  S    -1.049219  7.139673  3.962718
