16  
    
  C    -5.484536  0.987213  1.364940
  C    -5.144082  5.032967  1.279503
  C    -6.668898  0.395496  0.776518
  C    -6.283980  4.227900  0.713049
  N    -4.411063  1.195584  0.589619
  N    -4.257634  5.374406  0.332969
  N    -6.617174  0.208899 -0.541432
  N    -6.282466  4.063877 -0.628185
  N    -7.262552  0.568238  3.234697
  N    -6.638460  4.368868  3.279868
  S    -8.005008  0.185165  1.852899
  S    -7.446325  3.886155  1.914270
  S    -5.081974  0.768300 -0.928094
  S    -4.893555  4.790907 -1.111967
  S    -5.710135  1.118468  3.078958
  S    -5.216080  5.206666  3.074594
