16  
    
  C     0.892654  4.169027  2.524690
  C     1.560444  8.497504  3.079263
  C    -0.178151  3.455196  1.940263
  C     0.280173  8.244015  2.434461
  N     1.982660  4.297640  1.783680
  N     2.639815  8.652271  2.278504
  N     0.013574  3.380135  0.636124
  N     0.349219  8.186398  1.107482
  N    -0.901642  3.722804  4.342191
  N    -0.174545  8.145876  5.069228
  S    -1.549418  3.155158  2.955890
  S    -1.012277  7.999848  3.649756
  S     1.509464  3.898266  0.290119
  S     1.944544  8.444015  0.751607
  S     0.604663  4.353416  4.224891
  S     1.388246  8.718453  4.845914
