16  
    
  C    -2.026379  2.281520  1.965961
  C    -2.066517  5.809088  2.158677
  C    -3.284659  2.021553  1.379081
  C    -3.360088  5.540503  1.582292
  N    -0.989629  2.423599  1.133428
  N    -1.058489  5.873730  1.371540
  N    -3.177955  1.733202  0.077996
  N    -3.277935  5.627163  0.269643
  N    -3.811896  2.377493  3.854356
  N    -3.759766  5.771905  4.094833
  S    -4.598710  1.840360  2.483695
  S    -4.697835  5.468176  2.704126
  S    -1.624304  2.127120 -0.338657
  S    -1.621564  5.695774 -0.199029
  S    -2.151497  2.504191  3.722734
  S    -2.133784  6.102424  3.861768
