16  
    
  C    -2.491552  2.425532  2.198203
  C    -2.647659  5.569414  2.118048
  C    -3.689819  2.024829  1.547114
  C    -3.862252  5.164280  1.432730
  N    -1.429041  2.499810  1.408034
  N    -1.673039  5.994605  1.277680
  N    -3.581094  1.858157  0.248483
  N    -3.811133  5.112932  0.087227
  N    -4.210463  1.858092  4.077905
  N    -4.374585  5.242391  3.920880
  S    -5.095508  1.748975  2.667714
  S    -5.162476  4.978926  2.490245
  S    -2.015130  2.152585 -0.175680
  S    -2.281554  5.654999 -0.227295
  S    -2.621076  2.365135  3.905004
  S    -2.770169  5.737552  3.839128
