16  
    
  C    -4.153189  1.400740  1.955253
  C    -3.925272  5.202579  1.940816
  C    -5.403489  1.212380  1.309924
  C    -5.171011  4.808563  1.395724
  N    -3.116676  1.457470  1.116763
  N    -2.892499  5.075732  1.113567
  N    -5.370272  0.948365 -0.006582
  N    -5.094517  4.345090  0.139389
  N    -5.849469  1.377108  3.812953
  N    -5.674298  5.360437  3.835310
  S    -6.730601  1.013136  2.467390
  S    -6.486047  4.733363  2.557685
  S    -3.773376  1.134606 -0.438391
  S    -3.491194  4.428714 -0.282094
  S    -4.242307  1.753124  3.622062
  S    -4.122830  5.726044  3.626576
