16  
    
  C     1.891727  4.498581  3.378191
  C     1.443994  8.184187  3.033477
  C     0.594169  4.166963  2.800552
  C     0.408050  7.336349  2.425428
  N     2.833214  4.711237  2.477963
  N     2.325337  8.640617  2.134414
  N     0.704828  3.682833  1.568577
  N     0.574352  7.072780  1.134807
  N     0.095609  4.551000  5.191051
  N    -0.306675  7.565250  4.808664
  S    -0.795367  4.230692  3.870422
  S    -0.957515  6.960826  3.412034
  S     2.302164  4.049377  0.978136
  S     1.941289  7.928760  0.708244
  S     1.717208  4.855463  5.037275
  S     1.201427  8.221464  4.754943
