16  
    
  C     0.851483  3.857038  2.542946
  C     1.541604  7.929095  3.246924
  C    -0.322895  3.572223  1.842961
  C     0.263111  7.812663  2.612075
  N     1.892959  4.165480  1.757216
  N     2.581805  7.858215  2.404399
  N    -0.071876  3.382572  0.530549
  N     0.244089  7.778788  1.273773
  N    -0.888556  3.668032  4.362694
  N    -0.218946  7.853072  5.192845
  S    -1.626191  3.166085  2.881092
  S    -1.093796  7.773790  3.761937
  S     1.507130  3.729039  0.252689
  S     1.886082  7.848473  0.925290
  S     0.704716  4.052106  4.314953
  S     1.411289  8.020869  5.045548
