16  
    
  C    -0.170963  3.327609  2.611351
  C    -0.110151  7.028270  2.492879
  C    -1.239795  2.527680  1.984941
  C    -1.363453  6.602419  1.787713
  N     0.782821  3.731647  1.779150
  N     0.967005  7.278155  1.761420
  N    -0.979963  2.243268  0.711179
  N    -1.199926  6.667226  0.468967
  N    -1.915010  2.832391  4.444382
  N    -1.807019  6.540029  4.309271
  S    -2.593568  2.313415  2.999949
  S    -2.593991  6.089414  2.857811
  S     0.409080  3.046072  0.313563
  S     0.342567  7.197597  0.226148
  S    -0.404574  3.474069  4.303633
  S    -0.160837  6.923581  4.203851
