16  
    
  C    -2.578633  2.680787  2.027976
  C    -2.456943  6.160793  2.133410
  C    -3.783187  2.114772  1.510046
  C    -3.599089  5.626629  1.380955
  N    -1.541920  2.710206  1.177728
  N    -1.306193  6.288955  1.390965
  N    -3.738056  1.889247  0.195281
  N    -3.330198  5.347068  0.088436
  N    -4.310707  2.487813  3.995228
  N    -4.396765  6.037734  3.845501
  S    -5.086605  1.906818  2.619483
  S    -4.906695  5.368828  2.392116
  S    -2.179111  2.127623 -0.277854
  S    -1.858298  5.966215 -0.179258
  S    -2.664941  2.882208  3.753493
  S    -2.853316  6.637045  3.781912
