16  
    
  C    -5.523278  0.940792  1.435140
  C    -5.264750  5.025909  1.225551
  C    -6.698676  0.419555  0.773158
  C    -6.412637  4.399731  0.697048
  N    -4.556155  1.128231  0.545446
  N    -4.391177  5.326258  0.304206
  N    -6.568221  0.241621 -0.510716
  N    -6.341854  4.102487 -0.578473
  N    -7.296745  0.762780  3.285940
  N    -6.705621  4.382788  3.296959
  S    -8.024181  0.170573  1.877495
  S    -7.535417  3.876530  1.969431
  S    -5.053347  0.694277 -0.935655
  S    -4.869914  4.711423 -1.176755
  S    -5.683410  1.058100  3.159670
  S    -5.231582  5.084254  3.024374
