16  
    
  C    -2.568720  2.062634  2.037039
  C    -2.522861  5.744250  2.142351
  C    -3.818458  1.785992  1.403908
  C    -3.670871  5.370136  1.397370
  N    -1.557909  2.155189  1.180510
  N    -1.427932  5.882430  1.355906
  N    -3.764354  1.658668  0.071342
  N    -3.478413  5.156982  0.108954
  N    -4.377768  2.122198  3.886928
  N    -4.504705  5.946885  3.790992
  S    -5.227020  2.014066  2.424950
  S    -5.068690  5.280550  2.394357
  S    -2.152572  1.980467 -0.332476
  S    -1.869800  5.319366 -0.195105
  S    -2.719890  2.398898  3.701635
  S    -2.848139  6.071198  3.852870
