16  
    
  C     0.252280  3.586195  2.822118
  C     0.298398  7.480120  2.686467
  C    -0.920496  3.063791  2.103759
  C    -1.001382  7.360982  2.026953
  N     1.228438  4.032408  2.003006
  N     1.361323  7.433004  1.872622
  N    -0.697885  2.908284  0.795050
  N    -0.930091  7.449727  0.693456
  N    -1.602924  2.993212  4.573712
  N    -1.391356  7.424671  4.649065
  S    -2.330254  2.697412  3.108220
  S    -2.292619  7.307329  3.296930
  S     0.772723  3.506725  0.486984
  S     0.649452  7.618985  0.350001
  S    -0.058513  3.657809  4.507710
  S     0.240277  7.584438  4.433706
