16  
    
  C     2.031357  4.625432  3.280822
  C     1.615315  7.919762  3.059465
  C     0.849331  3.992863  2.693965
  C     0.437252  7.472767  2.345881
  N     3.056872  4.615941  2.409552
  N     2.668389  8.170962  2.273397
  N     0.901115  3.961990  1.331951
  N     0.494760  7.438081  1.008669
  N     0.268992  4.276179  5.216666
  N    -0.315371  7.636836  4.818021
  S    -0.491522  3.723808  3.852323
  S    -0.940881  7.041004  3.350760
  S     2.469062  4.329708  0.909655
  S     2.092306  7.819278  0.741959
  S     1.848306  4.936171  4.934582
  S     1.266919  8.121353  4.765844
