16  
    
  C     3.027327  5.344479  3.377514
  C     3.330929  9.058708  3.423157
  C     1.934189  4.597891  2.769649
  C     2.038648  8.691140  2.891636
  N     4.080351  5.466873  2.607072
  N     4.306994  9.210284  2.546082
  N     2.110695  4.289575  1.488859
  N     2.032224  8.447616  1.539331
  N     1.253710  4.750588  5.181744
  N     1.850372  8.901611  5.423582
  S     0.586926  4.259890  3.754267
  S     0.857078  8.609104  4.141085
  S     3.618921  4.923162  1.091043
  S     3.709007  8.594331  1.113317
  S     2.728081  5.488115  5.061415
  S     3.425450  9.240189  5.133732
