16  
    
  C    -5.231004  1.259086  1.779144
  C    -5.075270  5.066412  1.386693
  C    -6.310985  0.549795  1.143502
  C    -6.236770  4.491603  0.698983
  N    -4.132220  1.357575  0.994537
  N    -3.977461  5.099140  0.625510
  N    -6.171685  0.228504 -0.160499
  N    -6.031086  4.189777 -0.586035
  N    -6.972599  0.988427  3.651703
  N    -6.887202  4.589482  3.188235
  S    -7.645383  0.374059  2.215306
  S    -7.580376  4.074692  1.757615
  S    -4.612116  0.682956 -0.471630
  S    -4.440494  4.438555 -0.843540
  S    -5.363624  1.366999  3.536022
  S    -5.402748  5.258367  3.095955
