16  
    
  C     0.478880  3.539016  2.943139
  C     0.479668  7.590129  2.902693
  C    -0.878428  3.605164  2.396043
  C    -0.838523  7.256805  2.322647
  N     1.467186  3.876007  2.125714
  N     1.502698  7.545566  2.010319
  N    -0.828245  3.720817  1.074906
  N    -0.848940  7.142138  0.978915
  N    -1.176952  3.018206  4.893556
  N    -1.249583  7.606550  4.816097
  S    -2.137384  3.196140  3.518804
  S    -2.102681  7.179876  3.479076
  S     0.775819  3.927757  0.608276
  S     0.712766  7.355994  0.570108
  S     0.455262  3.347811  4.663204
  S     0.407621  7.822201  4.651449
