16  
    
  C     2.888225  5.316452  3.593919
  C     2.919324  8.845255  3.454435
  C     1.732792  4.838203  2.864356
  C     1.776750  8.317982  2.757726
  N     4.002418  5.422741  2.860500
  N     4.020309  9.054517  2.734102
  N     1.921356  4.906267  1.534243
  N     2.033611  8.076150  1.479452
  N     1.130671  4.692573  5.394914
  N     1.007255  8.620460  5.181986
  S     0.301302  4.789426  3.962858
  S     0.387618  8.064531  3.707309
  S     3.538805  5.191784  1.252740
  S     3.626924  8.548533  1.161346
  S     2.674922  5.333015  5.343789
  S     2.663354  8.793920  5.176225
