16  
    
  C    -0.741017  3.079754  2.673155
  C    -1.251920  6.489155  2.546450
  C    -1.976186  2.622674  2.038865
  C    -2.373425  5.969168  1.843290
  N     0.306308  3.249028  1.873943
  N    -0.311699  6.979795  1.751897
  N    -1.783190  2.261299  0.789397
  N    -2.250679  5.917488  0.518631
  N    -2.533639  3.056525  4.584303
  N    -3.159264  6.052507  4.339263
  S    -3.308885  2.717553  3.134044
  S    -3.780625  5.566698  2.904504
  S    -0.201798  2.640576  0.392837
  S    -0.741225  6.487823  0.192366
  S    -0.860071  3.318392  4.380851
  S    -1.609622  6.584612  4.330666
