16  
    
  C    -4.835202  1.164221  1.596863
  C    -4.754733  4.920609  1.878929
  C    -5.955734  0.499700  1.001428
  C    -5.865952  4.199460  1.270961
  N    -3.823762  1.408727  0.778891
  N    -3.725677  5.020232  1.043684
  N    -5.751815  0.290726 -0.280635
  N    -5.667305  3.839336  0.022238
  N    -6.660232  0.844592  3.389144
  N    -6.502970  4.411328  3.704426
  S    -7.316412  0.148224  2.050459
  S    -7.200853  3.900938  2.301400
  S    -4.246451  0.877459 -0.730821
  S    -4.144807  4.378459 -0.450415
  S    -5.102573  1.393770  3.335308
  S    -4.967710  5.102970  3.616183
