16  
    
  C    -5.330981  0.957351  1.749021
  C    -5.144714  4.715978  1.366869
  C    -6.548910  0.520346  1.133915
  C    -6.381934  4.323145  0.676485
  N    -4.270602  1.139572  0.967165
  N    -4.072362  4.863534  0.580462
  N    -6.462237  0.426568 -0.210249
  N    -6.201206  4.099619 -0.639167
  N    -7.189607  1.040178  3.663637
  N    -7.031975  4.924625  3.139836
  S    -7.870138  0.600027  2.204224
  S    -7.783275  4.438369  1.760004
  S    -4.825827  0.836905 -0.588441
  S    -4.595464  4.466812 -0.957167
  S    -5.511075  1.338828  3.452612
  S    -5.390592  5.265758  2.989096
