16  
    
  C    -0.405342  3.427960  2.711168
  C    -0.318320  7.011108  2.490189
  C    -1.427985  2.555009  2.069323
  C    -1.474994  6.427592  1.858742
  N     0.700873  3.568266  1.966714
  N     0.759201  7.179355  1.745076
  N    -1.161623  2.219042  0.806198
  N    -1.235667  5.989220  0.615787
  N    -2.255353  3.068485  4.451349
  N    -2.168028  7.023735  4.356115
  S    -2.798711  2.306593  3.066085
  S    -2.842738  6.263347  3.036183
  S     0.319492  2.847832  0.465269
  S     0.290905  6.511893  0.227140
  S    -0.739391  3.712269  4.436418
  S    -0.586819  7.474369  4.151316
