16  
    
  C     2.963017  5.189610  3.973187
  C     2.639967  8.664219  3.106038
  C     1.677465  4.985899  3.357199
  C     1.339966  8.313660  2.623804
  N     3.971891  5.355051  3.126500
  N     3.612053  8.601570  2.224054
  N     1.776089  4.691780  2.057031
  N     1.325560  7.892322  1.386175
  N     1.243894  5.806807  5.677760
  N     0.868184  8.525022  5.149689
  S     0.375012  5.110863  4.459914
  S     0.069393  8.168132  3.675067
  S     3.391901  4.841428  1.662644
  S     2.853384  8.129274  0.757957
  S     2.869421  5.915093  5.494895
  S     2.493225  8.874164  4.887332
