16  
    
  C    -2.266504  2.516814  1.948256
  C    -2.166671  5.842125  2.213290
  C    -3.476770  2.087446  1.366558
  C    -3.378914  5.413789  1.590912
  N    -1.275364  2.570613  1.049610
  N    -1.153609  6.093494  1.336926
  N    -3.481278  1.738901  0.071744
  N    -3.323959  5.345353  0.256790
  N    -3.905601  2.382373  3.949908
  N    -4.078944  5.932147  4.035005
  S    -4.761659  1.995138  2.548692
  S    -4.821340  5.427341  2.615037
  S    -1.925951  2.063189 -0.419994
  S    -1.732008  5.695710 -0.161113
  S    -2.278961  2.702449  3.691293
  S    -2.424282  6.154375  3.955184
