16  
    
  C     1.009449  4.090741  2.703135
  C     1.096174  7.576934  3.114633
  C    -0.202815  3.391430  2.302202
  C    -0.195140  7.211989  2.507377
  N     1.913522  4.040465  1.748740
  N     2.116446  7.611846  2.229433
  N    -0.201763  2.962124  1.054606
  N    -0.074056  6.914021  1.199957
  N    -0.720726  4.296123  4.637340
  N    -0.598057  7.408745  5.049594
  S    -1.463442  3.405953  3.481306
  S    -1.470329  7.118705  3.726531
  S     1.291400  3.238990  0.497200
  S     1.527643  7.190249  0.782214
  S     0.908088  4.621451  4.341871
  S     0.919085  7.987793  4.783996
