16  
    
  C    -5.436465  1.021945  1.281825
  C    -5.364059  5.035789  1.464495
  C    -6.591590  0.486734  0.577878
  C    -6.455954  4.447801  0.742309
  N    -4.408919  1.448691  0.524028
  N    -4.301348  5.386996  0.727436
  N    -6.438743  0.428125 -0.736480
  N    -6.234336  4.209808 -0.559323
  N    -7.283367  0.505701  3.124224
  N    -7.008684  4.229893  3.294418
  S    -7.911419  0.132037  1.645930
  S    -7.793292  3.989922  1.833651
  S    -4.941967  1.143465 -1.028500
  S    -4.733881  4.883598 -0.824476
  S    -5.719579  1.147115  2.979845
  S    -5.654689  5.217341  3.218540
