16  
    
  C    -0.365219  3.253874  2.720451
  C    -0.331067  7.031133  2.512833
  C    -1.455622  2.540302  2.075461
  C    -1.439927  6.408184  1.875968
  N     0.598250  3.684563  1.882148
  N     0.772086  7.142045  1.801936
  N    -1.091930  2.164367  0.854196
  N    -1.242814  6.125375  0.600890
  N    -2.270515  3.047551  4.472820
  N    -2.171214  6.960904  4.234224
  S    -2.812307  2.309383  3.097799
  S    -2.873410  6.394509  2.814975
  S     0.417752  2.816160  0.520620
  S     0.345330  6.628257  0.297234
  S    -0.714618  3.730086  4.341111
  S    -0.559936  7.473320  4.167861
