16  
    
  C     0.735599  3.659525  3.159084
  C     1.156085  7.571248  2.906945
  C    -0.489094  3.459560  2.469609
  C     0.033839  7.004106  2.237964
  N     1.702222  4.094719  2.327938
  N     2.233881  7.623530  2.129199
  N    -0.361552  3.347403  1.142884
  N     0.228046  6.751590  0.939138
  N    -0.994469  3.256309  5.025292
  N    -0.777831  7.545860  4.593220
  S    -1.781917  3.085618  3.620868
  S    -1.390350  6.865646  3.167446
  S     1.212741  3.682925  0.838569
  S     1.798332  7.175912  0.630527
  S     0.644518  3.658169  4.909097
  S     0.844320  7.958610  4.537843
