16  
    
  C     1.869444  4.287173  3.240768
  C     1.798139  7.830249  3.059973
  C     0.619723  3.883820  2.669665
  C     0.585931  7.390214  2.419712
  N     2.891738  4.266732  2.364737
  N     2.779834  8.215609  2.243040
  N     0.622709  3.887940  1.324931
  N     0.703316  7.434709  1.080434
  N     0.099305  4.179135  5.171091
  N     0.209165  7.397878  5.007224
  S    -0.725439  4.049788  3.725153
  S    -0.649566  7.091029  3.596633
  S     2.204550  4.157006  0.806842
  S     2.183394  8.094297  0.729192
  S     1.818709  4.179204  5.002606
  S     1.821359  7.818051  4.763479
