16  
    
  C    -3.403084  1.631914  2.060265
  C    -3.102757  5.431430  2.077648
  C    -4.652752  1.227910  1.475175
  C    -4.345477  5.017591  1.448192
  N    -2.399917  1.535370  1.199566
  N    -2.074661  5.586695  1.254532
  N    -4.594945  1.076217  0.149431
  N    -4.249091  4.833817  0.175160
  N    -5.103549  1.640129  3.975991
  N    -4.931278  5.157720  3.876992
  S    -5.968931  1.160519  2.655221
  S    -5.689779  4.935009  2.483099
  S    -2.972074  1.287936 -0.316798
  S    -2.718768  5.112551 -0.248534
  S    -3.469879  1.735777  3.877620
  S    -3.365165  5.698968  3.747602
