16  
    
  C     2.960675  5.114780  3.241514
  C     2.911902  9.132765  3.860671
  C     1.750746  4.727612  2.561204
  C     1.704761  8.723295  3.164286
  N     4.071032  5.208099  2.542671
  N     3.978027  9.244117  3.066064
  N     1.976879  4.528897  1.283028
  N     1.943267  8.476928  1.878803
  N     1.188452  4.975449  5.034073
  N     1.232976  8.895622  5.692031
  S     0.384335  4.521873  3.631979
  S     0.394643  8.401156  4.340491
  S     3.577924  4.751714  1.006914
  S     3.503669  8.827420  1.551499
  S     2.801601  5.329326  4.931995
  S     2.790557  9.401489  5.506590
