16  
    
  C    -3.335543  1.958547  2.027099
  C    -3.115470  5.529106  2.037491
  C    -4.542449  1.473385  1.447426
  C    -4.229407  4.834468  1.439730
  N    -2.350979  2.233454  1.174722
  N    -2.043050  5.695479  1.275470
  N    -4.565308  1.372353  0.128080
  N    -4.040527  4.558162  0.134942
  N    -4.887009  1.435088  3.937434
  N    -4.954944  5.249746  3.883046
  S    -5.769162  1.060330  2.621008
  S    -5.532226  4.485803  2.535639
  S    -3.051524  1.758204 -0.291419
  S    -2.530761  5.197310 -0.242712
  S    -3.323600  1.861292  3.687451
  S    -3.403807  5.804003  3.826813
