16  
    
  C    -2.379602  2.383850  1.958570
  C    -2.425933  6.301002  2.094233
  C    -3.696381  2.039490  1.415077
  C    -3.561346  5.613763  1.451942
  N    -1.390919  2.541097  1.088827
  N    -1.348491  6.336699  1.373964
  N    -3.637540  1.861459  0.104279
  N    -3.279584  5.144238  0.254973
  N    -4.031990  2.412090  3.956450
  N    -4.176142  5.823617  3.970355
  S    -4.934857  2.018363  2.595516
  S    -4.866869  5.443211  2.512423
  S    -2.081720  2.167442 -0.400656
  S    -1.717306  5.674655 -0.049327
  S    -2.466328  2.917585  3.635156
  S    -2.578246  6.239906  3.839009
