16  
    
  C    -4.158876  1.526332  1.934257
  C    -4.021692  5.254694  1.860318
  C    -5.375875  0.963058  1.368062
  C    -5.278153  4.640668  1.276838
  N    -3.222350  1.720734  1.003866
  N    -3.063812  5.368971  0.945527
  N    -5.244944  0.518425  0.094188
  N    -5.176430  4.214826  0.033030
  N    -5.937585  1.732868  3.706952
  N    -5.774557  5.209549  3.606718
  S    -6.704233  0.929374  2.467290
  S    -6.592006  4.561979  2.335264
  S    -3.815968  1.049383 -0.389081
  S    -3.647384  4.617496 -0.441976
  S    -4.311840  2.093316  3.518668
  S    -4.165557  5.663219  3.522140
