16  
    
  C     2.174910  4.396251  2.927017
  C     2.114206  8.580434  3.050135
  C     0.881457  4.164069  2.291747
  C     0.982682  7.880864  2.503398
  N     3.212201  4.668214  2.100378
  N     3.180818  8.735921  2.269425
  N     0.970526  4.010480  0.976274
  N     1.209650  7.385116  1.299201
  N     0.343956  4.403424  4.832668
  N     0.402710  8.472901  4.931811
  S    -0.369343  3.793876  3.412691
  S    -0.386326  7.865409  3.620538
  S     2.568978  4.251599  0.590093
  S     2.771430  7.964066  0.813765
  S     1.978423  4.683026  4.732474
  S     1.967585  9.003991  4.726569
