16  
    
  C    -4.323386  1.770514  1.912269
  C    -4.365573  5.199821  1.750992
  C    -5.456693  1.091466  1.302194
  C    -5.574846  4.757020  1.219089
  N    -3.202707  1.707690  1.203139
  N    -3.386228  5.240800  0.847431
  N    -5.237032  0.704648  0.040432
  N    -5.598982  4.555782 -0.078425
  N    -6.061008  1.475794  3.705144
  N    -6.077601  5.125190  3.661157
  S    -6.831157  0.986679  2.254307
  S    -6.949004  4.650203  2.237558
  S    -3.618329  0.972845 -0.259139
  S    -4.060409  4.828517 -0.603068
  S    -4.500709  2.150489  3.585497
  S    -4.417851  5.643568  3.434073
