16  
    
  C    -5.535072  1.070604  1.312082
  C    -5.159511  5.039845  1.369696
  C    -6.680811  0.529557  0.630458
  C    -6.218799  4.221174  0.734614
  N    -4.470360  1.350923  0.564157
  N    -4.247295  5.435893  0.525086
  N    -6.533384  0.397741 -0.661178
  N    -6.071403  4.142710 -0.581317
  N    -7.269113  0.583393  3.181025
  N    -6.785644  4.474740  3.296615
  S    -7.939027  0.057388  1.743885
  S    -7.441014  3.794599  1.943534
  S    -4.975089  0.931899 -1.005956
  S    -4.682255  4.972999 -1.016041
  S    -5.746269  1.154592  3.042114
  S    -5.376575  5.309861  3.062589
