16  
    
  C    -6.137730  0.958105  1.460897
  C    -6.155604  4.469336  1.847788
  C    -7.269582  0.245712  0.889538
  C    -7.252894  4.008458  1.130657
  N    -5.303198  1.297784  0.515910
  N    -5.075739  4.683335  1.114069
  N    -7.286197  0.121396 -0.434362
  N    -7.107946  3.978472 -0.174436
  N    -7.562485  0.210548  3.418035
  N    -8.055692  4.080944  3.524077
  S    -8.332706 -0.404496  2.078326
  S    -8.626826  3.595349  2.032190
  S    -5.859300  0.835846 -0.976995
  S    -5.511518  4.380479 -0.461922
  S    -6.044666  0.960158  3.157573
  S    -6.429311  4.406545  3.558236
