16  
    
  C    -3.104017  2.180499  1.741738
  C    -2.952754  5.915330  1.989369
  C    -4.177915  1.477353  1.053758
  C    -4.248766  5.485494  1.525585
  N    -2.055367  2.490978  0.961658
  N    -2.018272  6.074192  1.058927
  N    -4.021576  1.530191 -0.270792
  N    -4.220673  5.254679  0.195578
  N    -4.879635  1.614455  3.480537
  N    -4.572628  5.580791  3.985911
  S    -5.515819  1.075470  2.030468
  S    -5.516765  5.286014  2.631303
  S    -2.456460  2.144604 -0.575773
  S    -2.795858  5.769159 -0.394790
  S    -3.332847  2.303028  3.472799
  S    -2.993537  6.053650  3.677603
