16  
    
  C    -4.454534  1.622878  1.931422
  C    -4.672155  5.052071  1.703302
  C    -5.626590  1.014273  1.346183
  C    -5.782038  4.442001  1.082635
  N    -3.427383  1.764447  1.118988
  N    -3.654018  5.299371  0.899032
  N    -5.485074  0.833252  0.049122
  N    -5.696588  4.349849 -0.243466
  N    -6.015789  1.107182  3.933634
  N    -6.370866  4.692559  3.527068
  S    -6.818002  0.649384  2.525700
  S    -7.116090  4.074801  2.179987
  S    -3.959207  1.246988 -0.399423
  S    -4.131219  4.881382 -0.639670
  S    -4.409222  1.793004  3.705918
  S    -4.810409  5.248033  3.420531
