16  
    
  C    -3.342721  1.974408  2.027100
  C    -3.119418  5.511077  2.039822
  C    -4.540840  1.448154  1.450268
  C    -4.231223  4.834197  1.416894
  N    -2.355682  2.215001  1.170603
  N    -2.051217  5.700140  1.289566
  N    -4.588172  1.380115  0.140045
  N    -4.034890  4.576965  0.127871
  N    -4.879884  1.417541  3.940931
  N    -4.943098  5.260902  3.876655
  S    -5.763398  1.059720  2.630775
  S    -5.535368  4.484675  2.515070
  S    -3.064826  1.754038 -0.292809
  S    -2.534193  5.179445 -0.245347
  S    -3.327354  1.861875  3.685711
  S    -3.393714  5.810519  3.844131
