16  
    
  C    -0.201920  3.129957  2.618475
  C    -0.137133  6.983685  2.414916
  C    -1.446996  2.751626  2.036859
  C    -1.310420  6.450370  1.729602
  N     0.802731  3.354611  1.763075
  N     0.876615  7.258269  1.614695
  N    -1.359963  2.440771  0.759294
  N    -1.123604  6.393351  0.434692
  N    -1.906085  2.862503  4.511356
  N    -1.860872  6.401289  4.185257
  S    -2.646720  2.257564  3.179811
  S    -2.600168  5.985244  2.726401
  S     0.159562  2.935506  0.272164
  S     0.363524  7.002179  0.066041
  S    -0.409189  3.479492  4.348533
  S    -0.328859  7.059570  4.117507
