16  
    
  C     0.422923  3.728667  2.948413
  C     0.449424  7.517213  2.883317
  C    -0.859191  3.645912  2.357241
  C    -0.822919  7.253807  2.214813
  N     1.455859  3.898382  2.097080
  N     1.526990  7.600142  2.096257
  N    -0.828018  3.676807  1.030674
  N    -0.663138  7.074633  0.895269
  N    -1.086052  3.196411  4.927138
  N    -1.308172  7.498442  4.852063
  S    -2.071710  3.290226  3.554821
  S    -2.121352  7.094300  3.432418
  S     0.713263  3.923620  0.621664
  S     0.934138  7.202321  0.552686
  S     0.500184  3.323903  4.669256
  S     0.308972  7.847787  4.602225
