16  
    
  C    -0.026044  3.567204  2.566951
  C     0.263554  7.517554  2.706604
  C    -1.168702  3.039613  1.930214
  C    -0.923198  7.067049  2.047732
  N     0.983337  3.828939  1.739066
  N     1.283575  7.707963  1.918842
  N    -0.981496  2.569929  0.657960
  N    -0.805103  6.989552  0.739744
  N    -1.764774  3.452169  4.427398
  N    -1.394251  7.214527  4.516808
  S    -2.432540  2.668182  3.076692
  S    -2.286488  6.954865  3.112847
  S     0.542439  3.184269  0.266136
  S     0.866074  7.252882  0.400153
  S    -0.247979  4.090200  4.240868
  S     0.221095  7.523108  4.350417
