16  
    
  C    -0.736989  2.942737  2.559620
  C    -1.259262  6.479089  2.450061
  C    -1.984728  2.473731  1.931164
  C    -2.418206  5.984507  1.770649
  N     0.332303  3.028489  1.743332
  N    -0.215219  6.870745  1.704657
  N    -1.864332  2.500616  0.601377
  N    -2.178641  5.773797  0.473880
  N    -2.527588  2.876691  4.379714
  N    -2.961759  5.940353  4.371183
  S    -3.328222  2.438593  3.003623
  S    -3.697427  5.621248  2.949676
  S    -0.260260  2.687597  0.215423
  S    -0.588781  6.306674  0.194425
  S    -0.931272  3.284609  4.244415
  S    -1.428736  6.547744  4.228655
