16  
    
  C     3.114373  5.116608  3.444345
  C     3.166424  8.756718  3.723450
  C     1.835688  4.760349  2.820843
  C     1.836724  8.512757  3.259665
  N     4.118163  5.139417  2.576088
  N     4.111278  8.581299  2.857993
  N     1.947814  4.458510  1.537624
  N     1.837686  8.232174  1.937561
  N     1.389629  5.023274  5.352237
  N     1.775085  9.384183  5.828035
  S     0.551185  4.560172  3.981199
  S     0.654154  9.026016  4.549916
  S     3.510677  4.688828  1.077091
  S     3.390572  8.235910  1.456815
  S     3.054052  5.269307  5.192958
  S     3.399158  9.369281  5.283222
