16  
    
  C    -0.394561  3.300724  2.554838
  C    -0.177483  7.038980  2.352124
  C    -1.597395  2.713208  1.972522
  C    -1.484578  6.709750  1.693508
  N     0.613487  3.361804  1.690174
  N     0.793339  7.144453  1.420480
  N    -1.554055  2.626058  0.641063
  N    -1.351321  6.445588  0.413785
  N    -2.067811  3.215274  4.448205
  N    -2.055577  6.737760  4.261523
  S    -2.888416  2.736477  3.137559
  S    -2.815467  6.572395  2.809682
  S     0.046205  2.976940  0.202967
  S     0.184542  6.872082 -0.091784
  S    -0.458614  3.566168  4.277658
  S    -0.464043  7.168979  4.094763
