16  
    
  C    -1.589522  2.737311  2.351340
  C    -1.531236  6.251482  2.382813
  C    -2.734339  2.129137  1.656255
  C    -2.801538  5.848427  1.723174
  N    -0.441358  2.762716  1.630992
  N    -0.503724  6.449434  1.548259
  N    -2.499037  1.992982  0.347639
  N    -2.721694  5.672863  0.420476
  N    -3.514439  2.496313  4.098240
  N    -3.360752  6.204071  4.174633
  S    -4.098620  1.934149  2.630401
  S    -4.093900  5.562777  2.839975
  S    -0.894115  2.202064  0.151225
  S    -1.146308  6.116245  0.044467
  S    -1.909590  2.954077  4.060779
  S    -1.736947  6.547527  4.027596
