16  
    
  C     1.026363  4.181771  2.583798
  C     1.303081  7.978662  3.145633
  C    -0.037942  3.548197  1.942061
  C     0.045250  7.553956  2.569385
  N     2.111571  4.325113  1.855078
  N     2.361281  8.093996  2.301019
  N     0.284302  3.164170  0.721408
  N     0.095974  7.378760  1.236369
  N    -1.002984  3.985827  4.265553
  N    -0.522798  7.949546  5.052294
  S    -1.494574  3.200744  2.900608
  S    -1.334547  7.665037  3.617028
  S     1.763153  3.736397  0.358502
  S     1.672500  7.673554  0.875801
  S     0.614368  4.440308  4.231847
  S     1.159960  8.144127  4.904572
