16  
    
  C    -4.396937  1.034785  1.828776
  C    -4.703424  4.613824  1.631153
  C    -5.658236  0.672728  1.225444
  C    -5.866115  4.364643  0.882676
  N    -3.454262  1.455999  1.031709
  N    -3.692902  5.044860  0.887652
  N    -5.606142  0.752606 -0.081737
  N    -5.757267  4.464713 -0.424556
  N    -6.161046  0.635533  3.622594
  N    -6.615566  4.179372  3.258252
  S    -6.976177  0.418116  2.205784
  S    -7.218776  3.826942  1.702859
  S    -4.092919  1.319227 -0.505509
  S    -4.206175  5.022349 -0.681835
  S    -4.540333  1.109544  3.516372
  S    -4.939346  4.471636  3.346813
