16  
    
  C    -2.454688  2.511628  1.988875
  C    -2.422720  6.228041  2.106348
  C    -3.685737  1.994601  1.410896
  C    -3.537256  5.664065  1.444553
  N    -1.473392  2.496462  1.121091
  N    -1.334188  6.473972  1.353695
  N    -3.697102  1.885730  0.067315
  N    -3.266057  5.240022  0.179611
  N    -4.117666  2.432900  3.980543
  N    -4.212529  5.820508  3.953258
  S    -4.965407  2.007886  2.608287
  S    -4.958180  5.405313  2.503062
  S    -2.111712  2.186515 -0.395024
  S    -1.717544  5.661458 -0.084552
  S    -2.528202  2.943138  3.667377
  S    -2.637894  6.354335  3.819371
