16  
    
  C    -6.002593  0.836119  1.340486
  C    -6.026907  4.274593  1.557111
  C    -7.213211  0.651930  0.653196
  C    -7.215762  3.857792  0.898770
  N    -4.950058  0.985376  0.547018
  N    -5.076143  4.771337  0.728208
  N    -7.059466  0.571414 -0.683251
  N    -7.154692  3.875800 -0.468170
  N    -7.814793  0.274561  3.153588
  N    -7.651080  3.877278  3.474192
  S    -8.599450  0.287417  1.738471
  S    -8.374405  3.353419  2.067130
  S    -5.439198  0.803496 -1.029509
  S    -5.645438  4.500517 -0.795032
  S    -6.197193  0.642957  3.097670
  S    -6.033313  4.187003  3.311746
