16  
    
  C    -6.068996  0.770153  1.355029
  C    -6.023342  4.385962  1.766138
  C    -7.243365  0.262347  0.713797
  C    -7.231108  3.912765  1.049963
  N    -5.149928  1.190164  0.489130
  N    -4.995164  4.769188  0.946915
  N    -7.198678  0.228694 -0.636565
  N    -7.098504  3.893011 -0.298961
  N    -7.683983  0.244317  3.238895
  N    -7.757396  3.680801  3.559537
  S    -8.539675 -0.052672  1.862083
  S    -8.478004  3.390010  2.065128
  S    -5.763878  0.930472 -0.997834
  S    -5.604147  4.442313 -0.565691
  S    -6.113981  0.817082  3.115936
  S    -6.269498  4.388333  3.440402
