16  
    
  C    -5.514997  1.108778  1.316695
  C    -5.328873  5.253406  1.415594
  C    -6.650169  0.483393  0.587056
  C    -6.354808  4.504077  0.808985
  N    -4.471483  1.454881  0.550169
  N    -4.274963  5.545300  0.617155
  N    -6.500453  0.486972 -0.741711
  N    -6.178283  4.277584 -0.496932
  N    -7.269369  0.662725  3.048412
  N    -6.958302  4.364028  3.244868
  S    -7.955708  0.037729  1.636348
  S    -7.593097  3.826719  1.800193
  S    -4.937456  1.050841 -1.046688
  S    -4.686236  4.820788 -0.847945
  S    -5.690829  1.117116  3.098363
  S    -5.520127  5.209336  3.146800
