16  
    
  C     1.251382  4.341807  3.103352
  C     1.643424  8.266476  3.009746
  C    -0.035586  4.088086  2.417084
  C     0.391244  8.149466  2.349197
  N     2.265559  4.616088  2.269937
  N     2.678483  8.192411  2.198818
  N     0.029958  3.942335  1.104574
  N     0.536022  7.976116  1.035645
  N    -0.583830  4.168997  4.879575
  N    -0.071231  8.325337  4.871209
  S    -1.366212  3.666528  3.515775
  S    -0.923707  8.072375  3.493860
  S     1.565584  4.432260  0.720868
  S     2.149764  7.887953  0.622844
  S     1.040834  4.500722  4.868874
  S     1.561604  8.553872  4.694873
