16  
    
  C    -5.471316  0.988000  1.316107
  C    -5.339264  5.151579  1.487466
  C    -6.603029  0.533212  0.598461
  C    -6.439721  4.495833  0.803267
  N    -4.536456  1.436039  0.491392
  N    -4.333134  5.448671  0.674425
  N    -6.409101  0.463662 -0.731956
  N    -6.204882  4.256524 -0.472965
  N    -7.302050  0.569426  3.122063
  N    -6.979525  4.261866  3.267683
  S    -7.916381  0.097788  1.628455
  S    -7.701744  3.926005  1.800512
  S    -4.931130  1.111737 -1.042642
  S    -4.697017  4.848508 -0.842127
  S    -5.704114  1.136739  3.030991
  S    -5.610009  5.208610  3.165596
