16  
    
  C     3.085504  5.062378  3.366551
  C     3.096309  8.932267  3.904525
  C     1.876932  4.824864  2.601761
  C     1.848736  8.502766  3.317913
  N     4.153486  5.146527  2.579426
  N     3.961174  9.182006  2.929436
  N     2.078830  4.483333  1.309882
  N     1.834716  8.318348  2.038672
  N     1.129067  5.054668  5.080668
  N     1.313553  8.920875  5.773215
  S     0.451552  4.632766  3.604473
  S     0.493216  8.670321  4.387534
  S     3.641087  4.829400  0.966919
  S     3.281421  8.670095  1.456148
  S     2.775926  5.258318  5.107640
  S     2.891516  9.373104  5.678147
