16  
    
  C    -1.803183  2.187424  2.030361
  C    -1.890426  6.168278  2.146990
  C    -3.040733  2.023899  1.352938
  C    -3.124145  5.739544  1.515643
  N    -0.733088  2.338462  1.254529
  N    -0.854485  6.160674  1.300261
  N    -2.919039  1.853002  0.060895
  N    -3.035498  5.454175  0.257032
  N    -3.731254  2.220786  3.770891
  N    -3.594745  5.691364  3.962277
  S    -4.457156  1.766107  2.347846
  S    -4.522714  5.695436  2.579423
  S    -1.323694  2.128757 -0.290538
  S    -1.508979  5.769017 -0.229588
  S    -2.086885  2.414145  3.731092
  S    -1.942901  6.128085  3.851446
