16  
    
  C    -2.410519  1.988163  2.021398
  C    -2.569500  5.725634  2.071559
  C    -3.714047  1.756185  1.448038
  C    -3.801702  5.420908  1.372837
  N    -1.356654  1.836153  1.210207
  N    -1.533378  5.750941  1.306344
  N    -3.647632  1.677437  0.107468
  N    -3.713583  5.132919  0.076013
  N    -4.097269  2.276013  4.036831
  N    -4.383323  5.456784  3.911465
  S    -4.956851  2.114524  2.633599
  S    -5.123758  5.083909  2.487477
  S    -2.062854  1.744493 -0.335859
  S    -2.100140  5.456929 -0.235395
  S    -2.430057  2.371689  3.718453
  S    -2.712820  5.829157  3.792109
