16  
    
  C    -0.362223  3.296552  2.553068
  C    -0.284084  6.971135  2.349991
  C    -1.649809  3.066729  2.001137
  C    -1.598885  6.573614  1.795433
  N     0.603123  3.529244  1.672769
  N     0.601240  7.137600  1.355620
  N    -1.662164  3.001367  0.664897
  N    -1.608474  6.398632  0.455310
  N    -1.975576  3.187708  4.530084
  N    -1.938548  6.678668  4.364247
  S    -2.938284  2.958262  3.227399
  S    -2.806981  6.282329  2.990527
  S    -0.052266  3.171231  0.199387
  S    -0.090251  6.776141 -0.095009
  S    -0.395743  3.506367  4.258519
  S    -0.352671  7.121388  4.104790
