16  
    
  C     3.116277  5.208867  3.404582
  C     3.183222  8.837427  3.729261
  C     1.909420  4.708797  2.849714
  C     1.820695  8.616787  3.318098
  N     4.133043  5.155954  2.539647
  N     4.169011  8.553174  2.857943
  N     1.890610  4.603895  1.510340
  N     1.736510  8.203386  2.049721
  N     1.384143  5.026921  5.275485
  N     1.720125  9.364805  5.746664
  S     0.594423  4.544187  3.899890
  S     0.642469  8.955115  4.533221
  S     3.484660  4.666490  1.125789
  S     3.330461  8.257662  1.453040
  S     3.012461  5.224531  5.179662
  S     3.324878  9.405569  5.317596
