16  
    
  C    -1.775672  2.440879  2.035532
  C    -1.892790  6.512458  2.132483
  C    -3.022655  2.127529  1.450219
  C    -2.878951  5.565431  1.637566
  N    -0.776892  2.625502  1.169322
  N    -0.875276  6.690200  1.280628
  N    -2.970481  1.875595  0.151986
  N    -2.687621  5.121423  0.413404
  N    -3.433342  2.094528  4.004566
  N    -3.600340  6.196586  4.127202
  S    -4.351133  1.869197  2.640776
  S    -4.273645  5.345845  2.861626
  S    -1.407124  2.129900 -0.315987
  S    -1.327817  5.933756 -0.134395
  S    -1.851351  2.594018  3.757817
  S    -2.133935  6.928499  3.881828
