16  
    
  C    -2.550618  2.019487  2.037750
  C    -2.529702  5.799187  2.103413
  C    -3.862774  1.873046  1.366965
  C    -3.710148  5.337682  1.419782
  N    -1.528345  2.173357  1.202905
  N    -1.480345  5.840677  1.324166
  N    -3.764079  1.684047  0.067121
  N    -3.555936  5.124030  0.115350
  N    -4.418504  2.051498  3.822203
  N    -4.488081  5.886999  3.774748
  S    -5.224738  1.959718  2.397403
  S    -5.076384  5.292855  2.383419
  S    -2.203261  2.055018 -0.326290
  S    -1.880680  5.345086 -0.167708
  S    -2.809674  2.427170  3.704058
  S    -2.846251  6.116812  3.857359
