16  
    
  C     0.904208  3.748048  2.987134
  C     1.125088  7.655797  2.975630
  C    -0.359305  3.322415  2.456832
  C    -0.016551  7.094397  2.388919
  N     1.891168  3.848975  2.145781
  N     2.217997  7.706154  2.232591
  N    -0.440305  3.221142  1.125426
  N     0.128879  6.722559  1.137883
  N    -0.685863  3.667847  5.004307
  N    -0.747131  7.640948  4.818097
  S    -1.652080  3.331653  3.637987
  S    -1.426238  7.024808  3.423234
  S     1.157913  3.439901  0.622001
  S     1.692511  7.069418  0.719904
  S     0.843995  4.100399  4.687843
  S     0.898054  7.960313  4.701681
