16  
    
  C     3.141118  5.063990  3.397652
  C     2.984659  8.982061  3.838429
  C     1.915243  4.618427  2.718860
  C     1.749778  8.490602  3.284397
  N     4.202276  5.097251  2.584788
  N     3.970320  9.069198  2.966066
  N     2.029169  4.579950  1.389111
  N     1.716772  8.192702  2.010310
  N     1.173855  5.029006  5.064238
  N     1.411958  9.026990  5.876408
  S     0.471317  4.673545  3.598609
  S     0.445216  8.753222  4.516940
  S     3.623518  4.876518  1.061993
  S     3.346763  8.592892  1.512608
  S     2.828091  5.262658  5.092033
  S     3.064747  9.333651  5.500211
