16  
    
  C     2.909409  4.992667  3.629862
  C     3.049215  8.606710  3.580074
  C     1.633101  5.057294  2.910247
  C     1.866207  8.368787  2.867007
  N     3.969368  5.067883  2.821614
  N     4.123177  8.597697  2.768957
  N     1.769553  4.809261  1.586723
  N     1.938657  8.247062  1.516807
  N     1.144827  5.248019  5.533212
  N     0.992113  8.729132  5.207216
  S     0.321341  5.100655  4.124871
  S     0.421549  8.329126  3.742630
  S     3.390930  4.914546  1.249689
  S     3.488123  8.364742  1.200098
  S     2.789311  5.238861  5.351200
  S     2.632943  9.045126  5.264961
