16  
    
  C    -5.523157  0.947683  1.427338
  C    -5.258875  5.027741  1.225366
  C    -6.697892  0.413276  0.775303
  C    -6.399662  4.392323  0.695662
  N    -4.543595  1.131153  0.544240
  N    -4.382402  5.330985  0.306263
  N    -6.569670  0.240220 -0.511547
  N    -6.340004  4.097556 -0.585644
  N    -7.294117  0.749354  3.280450
  N    -6.702463  4.381601  3.296131
  S    -8.020777  0.172892  1.876865
  S    -7.528046  3.877018  1.967369
  S    -5.056537  0.699727 -0.933329
  S    -4.870535  4.715702 -1.173564
  S    -5.686599  1.061151  3.154444
  S    -5.227838  5.091754  3.031286
