16  
    
  C    -1.201744  3.343857  2.131507
  C    -1.084236  7.059241  2.597893
  C    -2.443276  2.791283  1.605811
  C    -2.351372  6.842127  1.990153
  N    -0.342369  3.758030  1.208534
  N    -0.064248  7.196085  1.762289
  N    -2.430892  2.532260  0.314278
  N    -2.292457  6.821163  0.693003
  N    -2.707497  2.920592  4.197078
  N    -2.832635  6.628611  4.493067
  S    -3.621529  2.456578  2.856488
  S    -3.680141  6.611326  3.053592
  S    -0.941282  3.123197 -0.245725
  S    -0.724335  6.847266  0.296733
  S    -1.117746  3.393016  3.882613
  S    -1.171021  7.065729  4.348256
