16  
    
  C     1.404226  4.632071  3.371583
  C     1.403057  8.008231  3.145207
  C     0.106097  4.083287  2.926536
  C     0.185714  7.843667  2.448099
  N     2.366960  4.575679  2.437213
  N     2.453557  7.970882  2.334434
  N     0.005388  3.916907  1.612103
  N     0.290493  7.754258  1.135494
  N    -0.123074  4.575341  5.471950
  N    -0.413118  7.978299  4.940898
  S    -1.135325  4.138093  4.179024
  S    -1.215459  7.748603  3.472275
  S     1.512007  4.301756  0.976432
  S     1.926146  7.693971  0.771608
  S     1.570942  4.705460  5.052669
  S     1.236225  8.133418  4.826771
