16  
    
  C     3.479950  5.432545  3.582748
  C     3.500973  8.989885  3.496837
  C     2.278253  4.922520  2.953805
  C     2.376782  8.407260  2.783664
  N     4.528245  5.450858  2.775120
  N     4.462551  9.479480  2.697832
  N     2.325604  4.880002  1.633083
  N     2.601574  8.436199  1.450651
  N     1.782816  4.910779  5.400119
  N     1.830304  8.698734  5.393583
  S     0.934581  4.683896  4.011914
  S     1.080631  8.101328  4.050567
  S     3.858751  5.285208  1.244142
  S     4.073725  9.100967  1.164127
  S     3.392378  5.389805  5.301042
  S     3.307284  9.370702  5.211074
