16  
    
  C     1.239099  4.641848  3.219841
  C     1.581382  7.973222  3.077182
  C    -0.021612  4.180782  2.760105
  C     0.297164  7.756425  2.415877
  N     2.148352  4.731392  2.288102
  N     2.634503  7.957522  2.258875
  N    -0.054628  3.972712  1.455882
  N     0.345187  7.578864  1.078970
  N    -0.158871  4.205124  5.323052
  N    -0.320371  8.110742  4.924980
  S    -1.220150  3.966035  3.969573
  S    -1.064545  8.197155  3.464340
  S     1.466765  4.374862  0.844242
  S     2.012215  7.683764  0.767168
  S     1.396534  4.659138  4.944055
  S     1.356028  8.150874  4.871731
