16  
    
  C    -1.562088  2.850204  2.017382
  C    -1.129486  6.860731  2.241401
  C    -2.664929  2.163727  1.331655
  C    -2.434874  6.486886  1.674968
  N    -0.522804  3.110788  1.262883
  N    -0.137481  6.878206  1.349197
  N    -2.353619  1.930783  0.073102
  N    -2.408772  6.200539  0.367480
  N    -3.294918  2.392058  3.809483
  N    -2.775110  7.020529  4.158497
  S    -3.864040  1.646732  2.440392
  S    -3.700479  6.392788  2.870664
  S    -0.877999  2.571545 -0.267624
  S    -0.859879  6.618562 -0.097903
  S    -1.895165  3.281513  3.690710
  S    -1.076857  7.134483  3.905142
