16  
    
  C     0.326721  3.516446  2.903802
  C     0.412549  7.659420  2.786577
  C    -0.920031  3.226574  2.185581
  C    -0.937407  7.478345  2.239247
  N     1.336346  3.963241  2.142894
  N     1.402987  7.678328  1.875196
  N    -0.760501  3.348587  0.865529
  N    -0.980302  7.485733  0.907704
  N    -1.433388  3.113240  4.727287
  N    -1.220340  7.530627  4.765277
  S    -2.223321  2.830173  3.248907
  S    -2.195553  7.444123  3.436129
  S     0.824488  3.718325  0.580534
  S     0.511067  7.548197  0.450475
  S     0.154203  3.437615  4.622808
  S     0.412670  7.562164  4.555090
