16  
    
  C     2.156671  4.420259  2.963848
  C     2.143813  8.518039  3.086545
  C     0.969290  3.918145  2.269483
  C     0.993005  7.722854  2.639988
  N     3.253788  4.547948  2.226997
  N     3.092189  8.679941  2.158114
  N     1.183675  3.586724  1.003198
  N     1.077868  7.209018  1.414001
  N     0.408886  4.213532  4.754911
  N     0.257143  8.527319  4.899649
  S    -0.427806  3.899833  3.354099
  S    -0.410588  7.824335  3.577348
  S     2.770617  4.138381  0.674243
  S     2.586673  7.735069  0.851525
  S     1.993804  4.558864  4.704745
  S     1.807871  9.105919  4.759591
