16  
    
  C     2.952919  5.522568  3.901414
  C     2.394566  8.607175  3.164216
  C     1.737502  4.953422  3.330444
  C     1.202718  8.065567  2.576174
  N     4.027190  5.362049  3.131008
  N     3.453989  8.820150  2.363255
  N     1.856429  4.544252  2.075786
  N     1.395697  7.800725  1.284126
  N     1.101041  5.778418  5.760724
  N     0.831115  8.253067  5.126541
  S     0.394441  4.897448  4.481963
  S    -0.127369  8.127212  3.714570
  S     3.428335  4.827608  1.589249
  S     3.012209  8.120231  0.918703
  S     2.786270  5.888840  5.641232
  S     2.403191  8.800915  4.892367
