16  
    
  C    -4.588389  0.957832  1.648772
  C    -4.836376  4.563398  1.583930
  C    -5.813449  0.814501  0.913477
  C    -6.052035  4.364393  0.899348
  N    -3.560511  1.154319  0.847572
  N    -3.773229  4.850372  0.840044
  N    -5.683718  0.797018 -0.423769
  N    -5.903243  4.362610 -0.416228
  N    -6.304093  0.705503  3.512044
  N    -6.616635  4.283304  3.443740
  S    -7.102093  0.555182  2.071805
  S    -7.382785  3.999418  1.949850
  S    -4.086577  1.149273 -0.730044
  S    -4.312309  4.878833 -0.730596
  S    -4.697277  0.977512  3.382209
  S    -4.998612  4.477362  3.255306
