16  
    
  C    -2.660821  2.504475  2.341357
  C    -2.626170  5.838938  2.016498
  C    -3.802804  1.935634  1.745760
  C    -3.856655  5.382262  1.316555
  N    -1.731228  3.023669  1.535599
  N    -1.598420  6.179740  1.253862
  N    -3.644099  1.774639  0.427487
  N    -3.754521  5.536661 -0.005077
  N    -4.363812  2.023332  4.165490
  N    -4.523441  5.484790  3.745489
  S    -5.002435  1.384741  2.808332
  S    -5.231895  4.978016  2.318742
  S    -2.264722  2.552120 -0.009560
  S    -2.197738  5.907913 -0.320817
  S    -2.846002  2.642532  4.100966
  S    -2.921726  5.966005  3.736814
