16  
    
  C     3.484231  5.344968  3.579243
  C     3.466255  8.994368  3.489406
  C     2.245146  4.948437  2.939366
  C     2.351273  8.360341  2.832731
  N     4.566839  5.477513  2.810328
  N     4.474983  9.496284  2.779099
  N     2.384788  4.891630  1.627077
  N     2.517956  8.421565  1.497695
  N     1.805929  4.951796  5.417396
  N     1.782989  8.673416  5.359477
  S     0.932833  4.739544  4.009723
  S     1.023028  8.097703  4.031076
  S     3.926793  5.335578  1.260023
  S     4.080583  9.103170  1.197245
  S     3.448431  5.414430  5.293424
  S     3.290753  9.339710  5.186131
