16  
    
  C    -4.351180  1.594075  1.949953
  C    -4.616588  5.162981  1.694008
  C    -5.468867  0.949013  1.400051
  C    -5.802474  4.608998  1.108285
  N    -3.272311  1.772505  1.151295
  N    -3.615675  5.360336  0.812959
  N    -5.336880  0.782357  0.076969
  N    -5.756831  4.306681 -0.194905
  N    -6.137845  1.301606  3.883257
  N    -6.330245  4.671045  3.700456
  S    -6.822768  0.787740  2.493829
  S    -7.096476  4.402025  2.221433
  S    -3.844824  1.240235 -0.331218
  S    -4.245997  4.824283 -0.666480
  S    -4.565063  1.867677  3.674298
  S    -4.830091  5.383848  3.447546
