16  
    
  C    -4.270668  1.577082  2.030765
  C    -4.630717  5.205045  1.683548
  C    -5.389153  0.923893  1.349656
  C    -5.843902  4.736596  1.091466
  N    -3.209509  1.751689  1.228587
  N    -3.625123  5.413947  0.844203
  N    -5.151883  0.667217  0.062841
  N    -5.775369  4.463669 -0.221767
  N    -6.208078  1.553286  3.717543
  N    -6.292248  5.127916  3.697565
  S    -6.869846  0.951186  2.355253
  S    -7.146412  4.602773  2.299847
  S    -3.679026  1.185348 -0.284405
  S    -4.147490  4.828686 -0.624176
  S    -4.591313  1.961175  3.675603
  S    -4.616814  5.478163  3.404046
