16  
    
  C    -2.519100  2.444246  2.209620
  C    -2.628416  5.577063  2.121832
  C    -3.688156  1.987893  1.558929
  C    -3.862734  5.168955  1.441848
  N    -1.436585  2.525467  1.425312
  N    -1.695015  6.013704  1.257905
  N    -3.588914  1.860024  0.244473
  N    -3.816467  5.127904  0.083755
  N    -4.220101  1.852041  4.090052
  N    -4.372590  5.252027  3.933753
  S    -5.102569  1.733369  2.663915
  S    -5.185340  4.969204  2.489780
  S    -2.020343  2.183623 -0.159738
  S    -2.259639  5.658980 -0.225037
  S    -2.620809  2.371160  3.909043
  S    -2.775160  5.735915  3.824849
