16  
    
  C    -3.184480  1.982984  1.867372
  C    -3.175262  5.777881  2.082849
  C    -4.280927  1.436260  1.125491
  C    -4.379775  5.260716  1.496240
  N    -2.039216  2.078609  1.161149
  N    -2.207574  6.026772  1.223549
  N    -4.085435  1.314242 -0.176367
  N    -4.325209  5.077556  0.177617
  N    -5.138741  1.740261  3.477734
  N    -4.827238  5.349529  4.010333
  S    -5.735381  1.139091  2.064156
  S    -5.639911  4.942394  2.646748
  S    -2.494212  1.593080 -0.369914
  S    -2.809321  5.726227 -0.250641
  S    -3.514467  2.062582  3.572449
  S    -3.221726  5.788980  3.804479
