16  
    
  C    -1.480710  2.712052  2.321596
  C    -1.446497  6.460568  2.246896
  C    -2.560578  1.984110  1.621154
  C    -2.698456  5.988487  1.641960
  N    -0.352491  2.787517  1.572373
  N    -0.514131  6.782122  1.344924
  N    -2.361306  1.819530  0.296087
  N    -2.586192  5.775765  0.348688
  N    -3.444197  2.455835  4.027824
  N    -3.123742  6.204261  4.228469
  S    -4.030318  1.754296  2.604986
  S    -3.981176  5.988140  2.846319
  S    -0.802292  2.321476  0.041677
  S    -0.991707  6.142044 -0.145437
  S    -1.882296  3.031076  3.938606
  S    -1.534258  6.725796  4.027969
