16  
    
  C    -5.786058  0.829169  1.561347
  C    -5.934654  4.633863  1.510173
  C    -6.998332  0.340422  0.891597
  C    -7.174352  4.316067  0.829214
  N    -4.754454  1.193550  0.791880
  N    -4.861523  4.803729  0.711726
  N    -6.823713  0.166957 -0.428303
  N    -7.072666  4.089088 -0.488848
  N    -7.668956  0.703697  3.403243
  N    -7.847657  4.263490  3.351555
  S    -8.268970 -0.005424  1.994360
  S    -8.563631  3.995411  1.894970
  S    -5.262993  0.703665 -0.752648
  S    -5.485114  4.423835 -0.816112
  S    -5.987623  1.021476  3.336192
  S    -6.252573  4.708252  3.229823
