16  
    
  C    -2.918072  2.409761  1.917436
  C    -2.741647  5.931615  2.054158
  C    -4.054222  1.953525  1.162947
  C    -3.988400  5.495590  1.460086
  N    -1.864505  2.626951  1.144895
  N    -1.736196  5.961018  1.160575
  N    -3.890830  1.779530 -0.152067
  N    -3.909264  5.164824  0.196050
  N    -4.731520  1.847608  3.663729
  N    -4.531426  5.762573  3.944711
  S    -5.392899  1.494518  2.146653
  S    -5.303202  5.199120  2.542921
  S    -2.301136  2.209080 -0.396481
  S    -2.350305  5.538883 -0.300700
  S    -3.118270  2.337156  3.620720
  S    -2.913647  6.203654  3.749248
