16  
    
  C    -0.861638  3.033165  2.435936
  C    -0.706278  6.581466  2.450885
  C    -2.150229  2.726539  1.835455
  C    -1.885462  6.197658  1.725746
  N     0.155024  3.201496  1.588432
  N     0.363430  6.751176  1.641456
  N    -2.044803  2.640371  0.522119
  N    -1.742089  5.876271  0.446684
  N    -2.602642  2.931021  4.424081
  N    -2.537917  6.321020  4.158550
  S    -3.404474  2.655776  2.975086
  S    -3.265853  6.000678  2.698884
  S    -0.455040  2.825603  0.099392
  S    -0.156225  6.170218  0.165809
  S    -0.970979  3.379176  4.165713
  S    -0.929129  6.638149  4.156957
