16  
    
  C    -5.648855  0.855472  1.577213
  C    -5.877100  4.654623  1.301737
  C    -6.868112  0.517053  0.857479
  C    -7.078078  4.273259  0.683105
  N    -4.553900  0.989842  0.818394
  N    -4.829696  4.937834  0.520115
  N    -6.731784  0.244817 -0.460499
  N    -6.978290  4.083535 -0.651153
  N    -7.551717  0.508037  3.381187
  N    -7.545429  4.512583  3.197711
  S    -8.228865  0.234013  1.900835
  S    -8.349663  3.998563  1.825428
  S    -5.102867  0.581274 -0.746086
  S    -5.382685  4.511113 -0.980946
  S    -5.949844  1.070096  3.228628
  S    -5.890515  4.811740  3.050369
