16  
    
  C    -0.369774  3.427101  2.810671
  C    -0.649057  6.899008  2.621722
  C    -1.605809  3.104366  2.174768
  C    -1.801299  6.299758  1.918895
  N     0.655876  3.712337  2.020108
  N     0.385153  7.159359  1.818846
  N    -1.444567  2.800727  0.894477
  N    -1.621327  6.249236  0.601146
  N    -2.124774  3.175075  4.755603
  N    -2.506063  6.662544  4.325454
  S    -2.950542  2.909646  3.269725
  S    -3.151976  6.069706  2.913223
  S     0.138988  3.241724  0.502471
  S    -0.069640  6.650564  0.343713
  S    -0.520234  3.776820  4.530516
  S    -0.925898  7.075966  4.324280
