16  
    
  C    -0.982990  3.098791  2.481845
  C    -0.658236  6.522087  2.367221
  C    -2.220492  2.817074  1.800634
  C    -1.896928  6.284638  1.662858
  N     0.055128  3.044920  1.673959
  N     0.413616  6.612648  1.572619
  N    -2.122859  2.650394  0.489452
  N    -1.761978  6.019433  0.372675
  N    -2.832147  3.215565  4.328937
  N    -2.392334  6.522773  4.161754
  S    -3.627875  2.830887  2.879707
  S    -3.178603  6.147628  2.789290
  S    -0.515547  2.721314  0.159146
  S    -0.133437  6.482868  0.022695
  S    -1.154461  3.384266  4.147908
  S    -0.760543  6.778163  4.048639
