16  
    
  C     2.432206  4.969453  3.509012
  C     2.484578  8.613370  3.432441
  C     1.257362  4.525868  2.805153
  C     1.280865  8.048497  2.913922
  N     3.544853  5.035202  2.799494
  N     3.386620  8.873006  2.536421
  N     1.504542  4.328109  1.516013
  N     1.282405  7.871196  1.593501
  N     0.708854  4.491020  5.215432
  N     0.875045  8.506099  5.416299
  S    -0.048460  3.960125  3.894052
  S     0.032303  7.822097  4.125839
  S     3.125762  4.675516  1.206064
  S     2.815959  8.300982  1.041082
  S     2.253928  5.086366  5.216466
  S     2.413915  9.034064  5.129738
