16  
    
  C    -4.377347  1.576758  1.967796
  C    -4.622572  5.059342  1.724245
  C    -5.580505  1.097131  1.362289
  C    -5.815056  4.472820  1.075813
  N    -3.385636  1.794035  1.106933
  N    -3.667631  5.327812  0.824642
  N    -5.487787  0.786928  0.066492
  N    -5.692545  4.354512 -0.250637
  N    -6.017913  1.174922  3.923615
  N    -6.349600  4.663097  3.578169
  S    -6.838983  0.680429  2.551529
  S    -7.127119  4.177861  2.214820
  S    -3.885890  1.240656 -0.415353
  S    -4.157532  4.849646 -0.684887
  S    -4.490667  1.807279  3.696764
  S    -4.832461  5.309870  3.479180
