16  
    
  C    -0.690757  3.272289  2.751915
  C    -1.326340  6.569055  2.625142
  C    -1.876835  2.713400  2.182350
  C    -2.482899  6.129698  1.833337
  N     0.433939  3.222126  2.004465
  N    -0.191175  6.883422  1.961816
  N    -1.732142  2.379835  0.896628
  N    -2.116659  5.976745  0.546467
  N    -2.399116  3.106340  4.610082
  N    -3.150349  6.091339  4.266673
  S    -3.222537  2.793000  3.248375
  S    -3.832428  5.647323  2.783549
  S    -0.150426  2.691340  0.500357
  S    -0.642839  6.610616  0.422650
  S    -0.803330  3.519749  4.518366
  S    -1.579904  6.700012  4.292245
