16  
    
  C     2.043942  4.538901  3.294916
  C     1.544172  7.908890  3.085741
  C     0.799710  4.109919  2.604287
  C     0.372915  7.579007  2.337516
  N     3.014800  4.739213  2.449300
  N     2.631270  7.951979  2.327861
  N     0.896657  3.938716  1.280241
  N     0.575407  7.491866  1.011261
  N     0.366777  4.122911  5.165550
  N    -0.274587  7.607369  4.801331
  S    -0.388974  3.675034  3.818881
  S    -0.966269  7.186772  3.360127
  S     2.406317  4.439746  0.952711
  S     2.161665  7.733945  0.717604
  S     1.864572  4.845019  4.999034
  S     1.332960  7.932260  4.781778
