16  
    
  C    -5.366888  1.115150  1.362101
  C    -5.496498  4.754176  1.569819
  C    -6.500980  0.456280  0.694847
  C    -6.734200  4.388726  1.013755
  N    -4.408742  1.369647  0.512694
  N    -4.494556  4.877396  0.741779
  N    -6.388712  0.428116 -0.633427
  N    -6.690561  4.300304 -0.291524
  N    -7.122569  0.906045  3.145068
  N    -7.119944  4.385255  3.564013
  S    -7.804155  0.202196  1.807952
  S    -8.026813  4.227468  2.183451
  S    -4.883778  0.968972 -1.013724
  S    -5.091005  4.528595 -0.750303
  S    -5.493784  1.281256  3.100931
  S    -5.555327  4.868003  3.265358
