16  
    
  C     0.006714  3.586724  2.568119
  C     0.274165  7.542053  2.683464
  C    -1.138996  2.958898  1.949742
  C    -0.939956  7.100699  2.016487
  N     1.013973  3.839518  1.745182
  N     1.336091  7.712736  1.923246
  N    -0.978394  2.647670  0.655535
  N    -0.787894  7.008597  0.712647
  N    -1.798277  3.411773  4.398849
  N    -1.429462  7.196016  4.504048
  S    -2.400175  2.643139  3.090528
  S    -2.307524  6.985501  3.112053
  S     0.544050  3.171224  0.293527
  S     0.832048  7.268237  0.383901
  S    -0.256141  4.088478  4.265287
  S     0.227898  7.498631  4.358071
