16  
    
  C    -0.003414  3.266835  2.630294
  C    -0.038684  7.029657  2.553486
  C    -1.164710  2.638346  1.908005
  C    -1.227462  6.584194  1.894058
  N     0.931624  3.752587  1.773715
  N     0.962197  7.476819  1.794939
  N    -0.904886  2.311344  0.651725
  N    -1.180168  6.674897  0.585019
  N    -1.907830  2.868263  4.327029
  N    -1.821908  6.491779  4.454875
  S    -2.521762  2.306491  2.911586
  S    -2.554041  6.303058  3.001951
  S     0.480036  3.157614  0.243050
  S     0.381665  7.201090  0.175278
  S    -0.359598  3.517082  4.331763
  S    -0.226295  6.944337  4.347123
