16  
    
  C     1.930549  5.060662  3.073382
  C     2.181778  8.633765  3.183021
  C     0.784932  4.481458  2.366827
  C     1.016469  8.109501  2.537602
  N     2.969035  5.472911  2.362530
  N     3.229110  8.935655  2.418609
  N     1.074473  4.216969  1.086547
  N     1.205865  7.865064  1.234648
  N    -0.006012  4.799970  4.848749
  N     0.450145  8.096133  5.054540
  S    -0.585835  4.087639  3.343122
  S    -0.288199  7.736379  3.580195
  S     2.644124  4.777170  0.855214
  S     2.726990  8.525547  0.845969
  S     1.653893  5.257550  4.828487
  S     2.100111  8.518214  4.945715
