16  
    
  C    -1.500363  2.818194  2.126349
  C    -1.251181  6.707775  2.195212
  C    -2.548318  2.019177  1.468778
  C    -2.556847  6.334773  1.643023
  N    -0.498812  3.118393  1.333442
  N    -0.300280  6.784487  1.261355
  N    -2.237841  1.638714  0.251866
  N    -2.499033  6.137360  0.313151
  N    -3.387654  2.450420  3.851303
  N    -2.895815  6.572410  4.220523
  S    -3.928800  1.642440  2.499496
  S    -3.783347  6.235036  2.811594
  S    -0.816257  2.401146 -0.161415
  S    -0.926911  6.316920 -0.194336
  S    -1.837683  3.024669  3.804242
  S    -1.306571  7.071990  3.957242
