16  
    
  C    -2.571338  2.367885  2.319688
  C    -2.741305  5.849000  2.037809
  C    -3.741366  1.788726  1.631044
  C    -3.902918  5.428591  1.299756
  N    -1.632269  2.849652  1.522619
  N    -1.670970  6.054032  1.259484
  N    -3.600950  1.811477  0.322071
  N    -3.762300  5.216474 -0.001649
  N    -4.348125  2.000620  4.146495
  N    -4.492828  5.488697  3.893709
  S    -5.040332  1.518761  2.724098
  S    -5.173331  4.895869  2.483251
  S    -2.169040  2.527650 -0.062490
  S    -2.180374  5.753694 -0.284211
  S    -2.765646  2.463123  4.050159
  S    -2.883359  5.733493  3.782083
