16  
    
  C     2.184898  4.595093  3.049736
  C     1.943905  8.147084  3.153849
  C     1.068823  3.949828  2.318841
  C     0.825959  7.477129  2.496369
  N     3.248946  4.552428  2.264069
  N     2.996113  8.277733  2.389699
  N     1.263057  3.587200  1.043688
  N     1.116407  7.068824  1.260019
  N     0.261840  4.386778  4.703585
  N     0.115294  8.210573  4.905362
  S    -0.429419  3.977387  3.299223
  S    -0.607544  7.617706  3.513772
  S     2.773738  4.046834  0.762801
  S     2.711009  7.473142  0.967863
  S     1.883782  4.830630  4.789320
  S     1.715902  8.608509  4.756455
