16  
    
  C     2.018272  4.929389  3.130417
  C     2.072929  8.537122  3.346760
  C     0.817516  4.612832  2.395498
  C     0.803815  8.252560  2.697950
  N     3.099133  5.221046  2.420005
  N     3.115570  8.821839  2.520634
  N     1.070259  4.407158  1.099137
  N     0.869683  8.388774  1.356748
  N     0.183407  4.392631  4.969810
  N     0.218570  8.528797  5.205307
  S    -0.463045  4.204620  3.467109
  S    -0.497754  7.986642  3.749486
  S     2.655614  4.970427  0.842735
  S     2.467718  8.665523  1.018372
  S     1.789090  4.979625  4.866000
  S     1.826352  8.881534  5.048697
