16  
    
  C    -2.482879  2.541216  2.008090
  C    -2.430870  6.212092  2.123103
  C    -3.778608  2.217749  1.453331
  C    -3.515597  5.580117  1.460497
  N    -1.486062  2.630370  1.150698
  N    -1.379057  6.364806  1.337290
  N    -3.712668  1.846443  0.179914
  N    -3.357409  5.372435  0.127349
  N    -4.209367  2.476120  3.949824
  N    -4.314598  5.922474  3.868736
  S    -5.048663  1.939468  2.622346
  S    -4.964069  5.371777  2.438885
  S    -2.168908  2.156342 -0.329613
  S    -1.735351  5.808398 -0.173051
  S    -2.644034  2.913077  3.703974
  S    -2.765158  6.555441  3.829155
