16  
    
  C    -0.355897  3.372168  2.647697
  C    -0.408069  6.956306  2.446676
  C    -1.622386  3.189661  2.032392
  C    -1.613707  6.398868  1.845041
  N     0.665190  3.382192  1.802590
  N     0.575918  7.177586  1.549409
  N    -1.624260  2.985797  0.730009
  N    -1.630969  6.329074  0.520702
  N    -2.086326  3.229820  4.644528
  N    -2.105807  6.708101  4.314257
  S    -2.899238  2.889049  3.194204
  S    -2.905529  6.187141  2.985214
  S    -0.047522  3.253122  0.268593
  S    -0.131572  6.731359  0.101972
  S    -0.423661  3.676326  4.399209
  S    -0.498050  7.117442  4.132428
