16  
    
  C    -0.709825  2.970174  2.632268
  C    -1.348028  6.636037  2.531913
  C    -1.982328  2.618680  1.990619
  C    -2.420470  5.959173  1.878090
  N     0.324508  3.080052  1.761629
  N    -0.295924  6.833202  1.775805
  N    -1.801660  2.313688  0.718742
  N    -2.230001  5.735670  0.610280
  N    -2.571585  2.968418  4.457326
  N    -2.977163  5.956471  4.290359
  S    -3.334211  2.538099  3.015549
  S    -3.765127  5.585848  2.819811
  S    -0.267812  2.683527  0.284327
  S    -0.755118  6.424664  0.250348
  S    -0.920583  3.284928  4.342374
  S    -1.430022  6.564615  4.221781
