16  
    
  C    -3.311456  1.912240  2.010393
  C    -3.104283  5.549374  2.088009
  C    -4.592690  1.525213  1.443560
  C    -4.211557  4.843462  1.462869
  N    -2.360330  2.244793  1.149599
  N    -2.050112  5.704742  1.244231
  N    -4.494355  1.341283  0.116025
  N    -4.048771  4.541330  0.174663
  N    -4.930332  1.478959  3.952080
  N    -4.976993  5.218080  3.916903
  S    -5.784486  1.068954  2.585987
  S    -5.532446  4.489511  2.579146
  S    -2.988037  1.779689 -0.311731
  S    -2.529223  5.234834 -0.235056
  S    -3.306440  1.864449  3.724796
  S    -3.419659  5.790280  3.763508
