16  
    
  C    -1.882977  2.375619  2.595977
  C    -1.695671  5.871432  2.336148
  C    -3.099118  1.903039  1.917729
  C    -2.967301  5.737467  1.611110
  N    -0.876238  2.715427  1.811699
  N    -0.639731  5.888004  1.583955
  N    -2.970805  1.933240  0.608852
  N    -2.750578  5.735669  0.303326
  N    -3.710468  2.092988  4.404469
  N    -3.564026  5.560055  4.097105
  S    -4.474105  1.961622  2.929044
  S    -4.341950  5.343374  2.649709
  S    -1.412896  2.443931  0.249762
  S    -1.134979  5.875698  0.021521
  S    -2.091373  2.422696  4.321607
  S    -1.915430  5.843649  4.022447
