16  
    
  C    -0.172923  3.221408  2.644944
  C    -0.093721  6.985949  2.450749
  C    -1.460412  2.763092  2.006065
  C    -1.277166  6.436571  1.723141
  N     0.840183  3.393440  1.786516
  N     0.928004  7.279397  1.637028
  N    -1.307788  2.390560  0.736818
  N    -1.180928  6.490812  0.392795
  N    -1.944114  2.852930  4.511974
  N    -1.903159  6.387903  4.218548
  S    -2.647715  2.242393  3.185537
  S    -2.578019  5.993677  2.743103
  S     0.195205  2.940745  0.284516
  S     0.359857  7.017890  0.025451
  S    -0.414237  3.475298  4.310409
  S    -0.327424  7.029602  4.164136
