16  
    
  C    -5.394290  1.171687  1.682904
  C    -5.160049  4.745381  1.429255
  C    -6.631018  0.922237  1.066673
  C    -6.413492  4.410781  0.793989
  N    -4.350401  1.085463  0.856782
  N    -4.138958  4.733524  0.580894
  N    -6.583791  0.758099 -0.270317
  N    -6.331723  4.062535 -0.488741
  N    -7.226097  1.005792  3.581065
  N    -6.971962  5.169332  3.128863
  S    -8.014244  0.700486  2.117138
  S    -7.746311  4.475172  1.816149
  S    -4.955722  0.740418 -0.646658
  S    -4.739902  4.305936 -0.913721
  S    -5.562452  1.274886  3.363203
  S    -5.282982  5.127177  3.125218
