16  
    
  C     0.521813  4.006369  2.921448
  C     0.659055  7.531637  2.871479
  C    -0.737404  3.417771  2.391823
  C    -0.498908  7.108131  2.089925
  N     1.539304  3.821932  2.060830
  N     1.755022  7.632637  2.155447
  N    -0.657662  3.057305  1.089383
  N    -0.239362  6.956600  0.810100
  N    -1.149213  3.788177  4.927919
  N    -1.304677  7.207904  4.484532
  S    -1.934220  3.322349  3.569156
  S    -1.928606  6.890687  3.023662
  S     0.871222  3.379522  0.633010
  S     1.350550  7.213296  0.570083
  S     0.477993  4.139915  4.705572
  S     0.264152  7.730570  4.554745
