16  
    
  C    -0.354666  3.430034  2.713964
  C    -0.529886  6.903329  2.516234
  C    -1.596563  3.047594  2.126641
  C    -1.778341  6.432451  1.849413
  N     0.678281  3.490340  1.877491
  N     0.488836  7.107523  1.653281
  N    -1.551279  3.038071  0.814625
  N    -1.571881  6.168932  0.562441
  N    -2.063113  3.239121  4.613359
  N    -2.303432  6.733797  4.439794
  S    -2.876504  2.897543  3.256279
  S    -3.047169  6.123089  3.050560
  S     0.033642  3.242399  0.363411
  S    -0.002443  6.764888  0.096034
  S    -0.543985  3.732282  4.471448
  S    -0.706235  7.095490  4.222775
