16  
    
  C     0.671652  3.838868  2.924243
  C     0.622569  7.629245  2.745959
  C    -0.549570  3.601756  2.249484
  C    -0.505820  6.889941  2.287522
  N     1.694688  3.956244  2.076070
  N     1.483028  7.766097  1.755134
  N    -0.412548  3.211123  0.945290
  N    -0.486684  6.508270  1.039998
  N    -1.060581  3.665249  4.793743
  N    -0.967239  7.353396  4.768563
  S    -1.762757  3.192984  3.444740
  S    -1.741255  6.654220  3.439338
  S     1.158911  3.550116  0.611420
  S     0.931103  7.090912  0.374697
  S     0.537333  4.231093  4.637808
  S     0.573964  8.017091  4.429328
