16  
    
  C    -1.445169  3.345963  2.020077
  C    -1.000197  6.976974  2.470698
  C    -2.574437  2.613759  1.403089
  C    -2.292387  6.775007  1.879762
  N    -0.540341  3.835024  1.142522
  N     0.010958  6.973345  1.617829
  N    -2.369897  2.323158  0.096819
  N    -2.212980  6.843333  0.541113
  N    -3.109624  2.764162  3.892262
  N    -2.687653  6.710922  4.468379
  S    -3.817047  2.180505  2.509136
  S    -3.564968  6.619740  3.091885
  S    -0.906437  3.073812 -0.314528
  S    -0.629964  6.827585  0.079846
  S    -1.631255  3.484690  3.758010
  S    -1.094041  7.072364  4.206438
