16  
    
  C     0.639486  3.905603  3.197472
  C     1.176945  7.546647  2.847084
  C    -0.484920  3.308891  2.494659
  C     0.017128  7.050044  2.138009
  N     1.787796  4.040885  2.489886
  N     2.238483  7.678351  2.058993
  N    -0.331280  3.292933  1.153440
  N     0.215369  6.859256  0.830928
  N    -1.113220  3.185326  4.943728
  N    -0.767281  7.302143  4.571529
  S    -1.887218  2.915119  3.467878
  S    -1.386811  6.759663  3.144559
  S     1.235223  3.827548  0.879489
  S     1.796104  7.181170  0.470700
  S     0.499003  3.630157  4.881382
  S     0.796390  7.910497  4.510242
