16  
    
  C    -4.389416  0.903312  1.777290
  C    -4.722036  4.552948  1.609328
  C    -5.652457  0.672744  1.115083
  C    -5.928209  4.235177  0.809493
  N    -3.422626  1.350188  0.958920
  N    -3.738551  5.008882  0.875409
  N    -5.565574  0.771844 -0.210905
  N    -5.799073  4.512029 -0.496330
  N    -6.155931  0.648535  3.572831
  N    -6.592184  4.264345  3.298855
  S    -7.086373  0.454425  2.211462
  S    -7.315894  3.866832  1.812119
  S    -4.113133  1.294989 -0.557779
  S    -4.223210  5.006925 -0.727236
  S    -4.607480  1.083128  3.478572
  S    -4.956999  4.457386  3.352730
