16  
    
  C    -4.137810  1.482247  1.892509
  C    -3.940598  5.218251  1.964149
  C    -5.463742  1.153278  1.337258
  C    -5.152153  4.665331  1.388265
  N    -3.105045  1.484607  1.071816
  N    -2.866837  5.157335  1.181544
  N    -5.327165  0.935125  0.053796
  N    -5.089257  4.315041  0.113095
  N    -5.825336  1.416344  3.862069
  N    -5.657335  5.368327  3.804064
  S    -6.701049  0.986307  2.468193
  S    -6.444490  4.713896  2.505099
  S    -3.819020  1.107900 -0.374840
  S    -3.475182  4.470042 -0.226588
  S    -4.212356  1.779760  3.575190
  S    -4.073228  5.733953  3.572288
