16  
    
  C    -5.353637  1.150996  1.423115
  C    -5.285389  4.572263  1.561570
  C    -6.619920  0.880343  0.728514
  C    -6.624184  4.184987  1.077214
  N    -4.312185  1.261351  0.634044
  N    -4.372037  4.799447  0.622902
  N    -6.558223  0.549120 -0.571403
  N    -6.700346  3.987814 -0.229789
  N    -7.064030  1.033385  3.355827
  N    -6.960188  4.665488  3.632589
  S    -7.886865  0.657171  1.920940
  S    -7.853710  4.124534  2.335056
  S    -4.872723  0.759733 -0.897196
  S    -5.206923  4.345542 -0.785426
  S    -5.451103  1.364334  3.177409
  S    -5.314921  4.722801  3.312016
