16  
    
  C     1.839592  4.142847  3.158868
  C     1.952875  8.001097  3.065463
  C     0.566959  4.024757  2.564392
  C     0.740793  7.510397  2.439724
  N     2.852223  4.311815  2.324837
  N     2.932217  8.343457  2.233774
  N     0.589339  3.856936  1.261422
  N     0.749756  7.444004  1.119099
  N     0.192635  4.301404  5.012250
  N     0.210725  7.492882  4.948275
  S    -0.691775  4.035305  3.721229
  S    -0.570200  7.134760  3.520432
  S     2.258622  4.030636  0.787858
  S     2.320879  7.964931  0.729564
  S     1.820036  4.334955  4.845474
  S     1.793017  7.872824  4.862201
