16  
    
  C     1.863174  4.124008  3.272359
  C     1.836713  7.730299  3.033010
  C     0.582208  4.135201  2.640916
  C     0.592566  7.378828  2.412076
  N     2.904581  4.304821  2.414487
  N     2.783193  8.175502  2.212689
  N     0.651621  3.894269  1.296946
  N     0.539483  7.527186  1.087177
  N     0.189651  4.025991  5.169104
  N     0.171741  7.315066  4.968933
  S    -0.680073  3.977251  3.770705
  S    -0.674681  7.099342  3.594558
  S     2.219363  4.225405  0.929054
  S     2.106512  8.052269  0.685503
  S     1.779172  4.194981  5.051460
  S     1.748464  7.788135  4.807947
