16  
    
  C    -0.366371  3.436572  2.610139
  C    -0.338978  6.927093  2.413945
  C    -1.682917  3.063208  2.057262
  C    -1.631385  6.442465  1.851526
  N     0.656667  3.384048  1.752484
  N     0.567394  7.207789  1.507417
  N    -1.623238  3.040200  0.711356
  N    -1.671908  6.373776  0.524490
  N    -2.028836  3.219291  4.581574
  N    -2.031060  6.697287  4.303481
  S    -2.919202  2.909632  3.198890
  S    -2.838452  6.216966  2.939926
  S    -0.054782  3.228827  0.237886
  S    -0.138384  6.724557  0.055588
  S    -0.403957  3.620275  4.355026
  S    -0.424954  7.129393  4.122135
