16  
    
  C     3.199552  5.001133  3.474724
  C     3.508003  8.943083  3.780394
  C     1.921533  4.792149  2.820356
  C     2.262478  8.754334  3.114577
  N     4.271341  5.004571  2.685503
  N     4.581624  8.944968  2.971333
  N     2.048008  4.516087  1.537938
  N     2.321035  8.752396  1.766932
  N     1.364061  5.148630  5.273506
  N     1.471601  9.286436  5.504539
  S     0.572596  4.746396  3.848963
  S     0.867819  8.893573  3.988537
  S     3.672675  4.742411  1.129318
  S     3.921306  8.767872  1.412368
  S     3.043356  5.220590  5.211974
  S     3.216541  9.235748  5.544840
