16  
    
  C     0.513817  3.591943  2.951753
  C     0.455961  7.571757  2.838501
  C    -0.838744  3.671034  2.421595
  C    -0.768673  7.195434  2.198796
  N     1.445728  3.991733  2.088385
  N     1.583777  7.573504  2.103479
  N    -0.860862  3.698611  1.077412
  N    -0.627829  7.006243  0.871604
  N    -1.147818  3.264119  4.933169
  N    -1.340802  7.436990  4.778814
  S    -2.074616  3.311997  3.560957
  S    -2.119404  7.079850  3.380234
  S     0.713895  3.889994  0.586026
  S     0.972908  7.196007  0.613443
  S     0.522956  3.362307  4.649946
  S     0.287047  7.839450  4.585620
