16  
    
  C     0.910898  3.735333  2.986318
  C     1.122471  7.655220  2.973551
  C    -0.358856  3.336126  2.459363
  C    -0.019054  7.087901  2.392146
  N     1.894736  3.851836  2.151691
  N     2.215237  7.705838  2.229350
  N    -0.436725  3.219236  1.134603
  N     0.136849  6.727154  1.141662
  N    -0.692408  3.654186  5.005875
  N    -0.753418  7.645536  4.812635
  S    -1.657805  3.328158  3.639573
  S    -1.427695  7.023622  3.420037
  S     1.153411  3.446420  0.626474
  S     1.701633  7.069877  0.713291
  S     0.840642  4.090264  4.691275
  S     0.897733  7.959211  4.698071
