16  
    
  C    -0.341557  3.354410  2.678247
  C    -0.436252  6.953746  2.427993
  C    -1.608812  3.217433  2.032508
  C    -1.608075  6.403484  1.852133
  N     0.659777  3.390722  1.812985
  N     0.565206  7.160117  1.565089
  N    -1.622925  2.973284  0.731651
  N    -1.618564  6.305282  0.530026
  N    -2.093487  3.233637  4.655426
  N    -2.129469  6.714091  4.330758
  S    -2.892177  2.885753  3.197714
  S    -2.931486  6.176251  3.000833
  S    -0.039858  3.257792  0.279688
  S    -0.115486  6.739312  0.106841
  S    -0.439147  3.690402  4.409695
  S    -0.528200  7.112725  4.142384
