16  
    
  C    -1.785401  2.412797  2.381147
  C    -1.831946  6.240080  2.323870
  C    -2.952898  1.825626  1.731572
  C    -3.061628  5.716265  1.757800
  N    -0.795891  2.639391  1.516866
  N    -0.870758  6.374612  1.401927
  N    -2.888090  1.759980  0.398507
  N    -2.978273  5.432674  0.444584
  N    -3.614810  2.174474  4.161480
  N    -3.461257  5.859063  4.273168
  S    -4.406912  1.725691  2.780998
  S    -4.271238  5.294634  2.906596
  S    -1.315705  2.205657  0.008982
  S    -1.465038  5.917024 -0.126218
  S    -2.015648  2.589962  4.065086
  S    -1.960971  6.612134  4.027853
