16  
    
  C    -1.173202  3.046682  2.258997
  C    -0.934257  6.807920  2.473046
  C    -2.448517  2.702097  1.683207
  C    -2.245762  6.576146  1.872874
  N    -0.206439  3.061729  1.360978
  N    -0.013992  7.107134  1.565584
  N    -2.551012  2.814360  0.362593
  N    -2.273384  6.539841  0.537503
  N    -2.841597  3.091818  4.253972
  N    -2.668637  6.797708  4.345745
  S    -3.728786  2.724000  2.873035
  S    -3.590245  6.553420  3.021009
  S    -0.954344  2.923178 -0.149633
  S    -0.768862  6.908967  0.096267
  S    -1.196873  3.318044  4.000717
  S    -1.012276  7.047596  4.213136
