16  
    
  C     1.821433  4.218010  3.130439
  C     1.951126  8.002795  3.079163
  C     0.538340  3.990825  2.529922
  C     0.760386  7.518316  2.441920
  N     2.853844  4.260150  2.328928
  N     2.933667  8.340100  2.228214
  N     0.605533  3.859577  1.251814
  N     0.784103  7.472890  1.128507
  N     0.197225  4.302038  5.016360
  N     0.192308  7.495520  4.953866
  S    -0.676942  4.029637  3.708611
  S    -0.550412  7.151668  3.504985
  S     2.264275  4.025697  0.779735
  S     2.338839  7.938512  0.721862
  S     1.834471  4.366962  4.845442
  S     1.789365  7.890081  4.875858
