16  
    
  C     0.424182  3.444691  2.949588
  C     0.387246  7.569468  2.825854
  C    -0.860725  3.514198  2.285106
  C    -0.930209  7.311674  2.271175
  N     1.437949  3.690303  2.133498
  N     1.391217  7.740562  1.936123
  N    -0.781846  3.519911  0.931883
  N    -0.908929  7.285001  0.908499
  N    -1.301223  3.092065  4.837769
  N    -1.143303  7.592029  4.923096
  S    -2.161355  2.945061  3.350159
  S    -2.160945  7.425068  3.621224
  S     0.763593  3.916750  0.627818
  S     0.604618  7.526896  0.441918
  S     0.309010  3.396314  4.695712
  S     0.477718  7.629789  4.616158
