16  
    
  C     2.965096  5.375292  3.736977
  C     2.770509  8.661541  3.175635
  C     1.628000  5.045074  3.239764
  C     1.439658  8.303323  2.664272
  N     3.946921  5.134508  2.846257
  N     3.771481  8.522524  2.306733
  N     1.605964  4.832629  1.912373
  N     1.482676  7.974544  1.363032
  N     1.329578  5.452864  5.742643
  N     1.063139  8.973133  5.084350
  S     0.363338  5.444006  4.359111
  S     0.160563  8.370302  3.884480
  S     3.196747  4.607305  1.533119
  S     3.038644  8.225027  0.844099
  S     3.015776  5.606137  5.435225
  S     2.695701  9.114769  4.872512
