16  
    
  C     0.884553  4.108470  2.557669
  C     1.486588  8.489237  3.170346
  C    -0.231208  3.426619  1.848865
  C     0.250984  8.197973  2.506277
  N     1.928962  4.388965  1.771870
  N     2.512457  8.509619  2.355184
  N    -0.104517  3.266039  0.516274
  N     0.366063  8.186433  1.169355
  N    -0.892113  3.733971  4.400658
  N    -0.180367  8.130318  5.071022
  S    -1.557367  3.145046  2.933357
  S    -1.042295  7.994855  3.666101
  S     1.476944  3.771139  0.239863
  S     1.945837  8.437139  0.745529
  S     0.652103  4.337579  4.240200
  S     1.415996  8.632775  4.863554
