16  
    
  C     0.743232  3.737162  3.138043
  C     1.107488  7.566445  2.911702
  C    -0.485698  3.404116  2.450640
  C     0.036835  6.991950  2.242052
  N     1.744683  4.019086  2.348450
  N     2.194795  7.637665  2.195188
  N    -0.412667  3.327442  1.125680
  N     0.236675  6.736200  0.983226
  N    -0.935665  3.283602  5.044386
  N    -0.788640  7.598046  4.598398
  S    -1.744716  3.141796  3.625026
  S    -1.384591  6.904698  3.203016
  S     1.190778  3.658312  0.783450
  S     1.801649  7.166588  0.649233
  S     0.688296  3.689542  4.936045
  S     0.869109  7.959479  4.542106
