16  
    
  C    -3.325572  1.573557  2.059405
  C    -3.145171  5.424893  2.065808
  C    -4.615699  1.294078  1.528135
  C    -4.358716  4.986076  1.378596
  N    -2.389811  1.787248  1.139797
  N    -2.097359  5.538890  1.252902
  N    -4.648347  1.220474  0.210135
  N    -4.134977  4.709170  0.065867
  N    -4.992755  1.577552  4.028393
  N    -4.925982  5.073687  3.931031
  S    -5.843083  1.117389  2.672569
  S    -5.677936  4.819047  2.484074
  S    -3.130417  1.518428 -0.277809
  S    -2.511477  5.180159 -0.285177
  S    -3.368162  1.766591  3.716552
  S    -3.345754  5.775530  3.805905
