16  
    
  C    -3.348249  1.674398  1.570174
  C    -3.739609  5.343445  1.657723
  C    -4.587713  1.137723  0.989935
  C    -5.005604  4.942846  1.056315
  N    -2.366189  1.864046  0.710123
  N    -2.792415  5.696228  0.777057
  N    -4.453978  0.866483 -0.293427
  N    -4.942106  4.848983 -0.253243
  N    -5.061237  1.456449  3.508608
  N    -5.558365  5.232652  3.529848
  S    -5.814738  0.942400  2.136316
  S    -6.332039  4.697003  2.209447
  S    -2.926751  1.379865 -0.760343
  S    -3.362091  5.266913 -0.745192
  S    -3.608834  2.156503  3.265320
  S    -3.940217  5.558461  3.328005
