16  
    
  C    -1.475110  3.442933  2.018235
  C    -0.936675  6.859070  2.543854
  C    -2.535429  2.650229  1.457902
  C    -2.247008  6.815638  1.917305
  N    -0.458167  3.724697  1.182420
  N     0.076288  6.895939  1.671645
  N    -2.355351  2.513487  0.130118
  N    -2.281431  6.732858  0.569649
  N    -3.038799  2.801951  3.972592
  N    -2.731624  6.838810  4.454910
  S    -3.724339  2.212516  2.552725
  S    -3.598513  6.604196  3.025813
  S    -0.918105  3.158458 -0.306176
  S    -0.672428  6.988250  0.150189
  S    -1.540899  3.570511  3.773146
  S    -1.071835  7.039040  4.318306
