16  
    
  C     2.924002  5.293527  3.627221
  C     2.892026  8.735630  3.479689
  C     1.704376  5.021841  2.887188
  C     1.766077  8.334527  2.669750
  N     3.992103  5.345622  2.857543
  N     4.001225  8.988676  2.770495
  N     1.860803  4.801143  1.584589
  N     1.995469  8.165086  1.352352
  N     1.158246  4.710944  5.350785
  N     1.015142  8.705898  5.233749
  S     0.343856  4.858400  3.934270
  S     0.377496  8.095252  3.773888
  S     3.490565  5.152422  1.309542
  S     3.685774  8.509641  1.269054
  S     2.689253  5.307051  5.362596
  S     2.679837  8.821590  5.144247
