16  
    
  C     0.956793  4.160686  2.695931
  C     1.579736  8.710357  3.040441
  C    -0.141692  3.521958  1.927906
  C     0.365234  8.195257  2.425394
  N     2.042378  4.431619  1.960092
  N     2.609264  8.873905  2.213934
  N     0.076153  3.604592  0.597101
  N     0.478356  8.034541  1.099653
  N    -0.953224  3.855848  4.419484
  N    -0.151382  8.355766  4.910522
  S    -1.499213  3.178524  2.949643
  S    -0.946134  8.008248  3.478441
  S     1.639523  4.091908  0.387695
  S     1.979903  8.422418  0.684515
  S     0.647443  4.404744  4.429647
  S     1.477315  8.835945  4.784115
