16  
    
  C    -5.408101  1.029076  1.548810
  C    -5.132977  4.642617  1.511008
  C    -6.655443  0.699423  0.932075
  C    -6.448564  4.203528  0.993107
  N    -4.357692  1.098639  0.736809
  N    -4.183032  4.586526  0.586861
  N    -6.634694  0.675876 -0.379424
  N    -6.494019  3.970336 -0.301145
  N    -7.126633  1.068947  3.447655
  N    -6.799109  4.515740  3.499479
  S    -7.963058  0.975066  2.041509
  S    -7.737026  4.306910  2.140025
  S    -4.995137  0.907642 -0.799260
  S    -4.960865  4.193853 -0.856677
  S    -5.549081  1.364261  3.290070
  S    -5.225474  5.083948  3.221898
