16  
    
  C    -4.363386  1.574773  1.972290
  C    -4.615759  5.059478  1.722326
  C    -5.577255  1.101569  1.365220
  C    -5.819431  4.478761  1.072230
  N    -3.381043  1.795964  1.104777
  N    -3.666117  5.332140  0.819045
  N    -5.486201  0.782047  0.065448
  N    -5.692140  4.353081 -0.250755
  N    -6.017321  1.183042  3.921548
  N    -6.348147  4.660650  3.587951
  S    -6.840329  0.684710  2.553898
  S    -7.126731  4.189383  2.216995
  S    -3.879522  1.240586 -0.414153
  S    -4.162345  4.846550 -0.687365
  S    -4.501191  1.808086  3.694747
  S    -4.834972  5.315740  3.483629
