16  
    
  C    -3.358355  1.954953  2.005899
  C    -3.109802  5.456597  2.127808
  C    -4.601203  1.413551  1.495890
  C    -4.233476  4.856193  1.395853
  N    -2.400386  2.128401  1.107374
  N    -2.100544  5.716434  1.297443
  N    -4.621027  1.369633  0.164324
  N    -4.038292  4.646887  0.097511
  N    -4.888176  1.363102  3.997637
  N    -4.933729  5.266325  3.861069
  S    -5.758470  1.059628  2.649437
  S    -5.551225  4.496299  2.456664
  S    -3.078610  1.752476 -0.332469
  S    -2.530882  5.128903 -0.243327
  S    -3.321058  1.874330  3.730622
  S    -3.353803  5.823747  3.850059
