16  
    
  C     2.439548  4.753482  3.424943
  C     2.652109  8.709878  3.487505
  C     1.306722  4.188154  2.701941
  C     1.370827  8.245686  2.948150
  N     3.516961  5.038561  2.703271
  N     3.507986  8.926518  2.509493
  N     1.505158  4.118106  1.375715
  N     1.247095  8.086404  1.637617
  N     0.540889  4.313687  5.246556
  N     0.904947  8.492725  5.467698
  S    -0.158057  3.939163  3.719171
  S     0.063476  8.109288  4.101697
  S     3.017207  4.808463  1.138814
  S     2.755098  8.421854  1.060391
  S     2.193157  4.864050  5.135552
  S     2.530144  8.865040  5.290593
