16  
    
  C    -4.874734  1.286224  1.459282
  C    -4.759480  4.817639  1.934258
  C    -5.966135  0.658019  0.831975
  C    -5.908306  4.240818  1.311313
  N    -3.787146  1.384970  0.697395
  N    -3.721025  4.999273  1.147299
  N    -5.768688  0.484794 -0.481916
  N    -5.708668  3.969163  0.015444
  N    -6.591604  0.754680  3.349513
  N    -6.394806  4.378746  3.781403
  S    -7.245253  0.298563  1.902793
  S    -7.204139  3.998562  2.432142
  S    -4.230764  0.845552 -0.757908
  S    -4.099225  4.339802 -0.288279
  S    -4.959388  1.249105  3.208855
  S    -4.866379  5.021953  3.609884
