16  
    
  C     0.415948  3.462699  2.955493
  C     0.404001  7.560891  2.829085
  C    -0.829082  3.514677  2.299118
  C    -0.898425  7.269901  2.267230
  N     1.430604  3.669122  2.133914
  N     1.397391  7.738222  1.929336
  N    -0.805554  3.541250  0.953235
  N    -0.907777  7.283113  0.908434
  N    -1.281689  3.079601  4.843830
  N    -1.145551  7.598887  4.916732
  S    -2.145522  2.970945  3.354378
  S    -2.161737  7.410071  3.628732
  S     0.762397  3.930689  0.624259
  S     0.609077  7.515788  0.456007
  S     0.321196  3.392648  4.706702
  S     0.474158  7.647210  4.628152
