16  
    
  C    -3.406854  1.627716  2.055339
  C    -3.102833  5.432161  2.075928
  C    -4.653256  1.227149  1.477042
  C    -4.343210  5.028848  1.452236
  N    -2.397813  1.531775  1.198271
  N    -2.077790  5.582140  1.251874
  N    -4.589395  1.073558  0.152090
  N    -4.256309  4.830885  0.182721
  N    -5.110992  1.637515  3.980389
  N    -4.936289  5.162322  3.877742
  S    -5.968242  1.163124  2.652276
  S    -5.691056  4.936660  2.486532
  S    -2.967971  1.280127 -0.314306
  S    -2.720580  5.113046 -0.248021
  S    -3.479026  1.736175  3.877584
  S    -3.365412  5.695873  3.742882
