16  
    
  C    -4.419048  1.105456  1.849486
  C    -4.673552  4.661209  1.630140
  C    -5.635033  0.667764  1.230486
  C    -5.847498  4.386486  0.882772
  N    -3.461324  1.480288  1.038874
  N    -3.654181  5.057735  0.891455
  N    -5.640565  0.746831 -0.086713
  N    -5.730743  4.461923 -0.433378
  N    -6.162005  0.641580  3.676447
  N    -6.622709  4.143377  3.251814
  S    -6.942504  0.405457  2.207900
  S    -7.195971  3.815573  1.697813
  S    -4.078094  1.327000 -0.494516
  S    -4.204571  5.021112 -0.660158
  S    -4.525154  1.114307  3.543861
  S    -4.947195  4.475485  3.340331
