16  
    
  C     3.167911  5.184870  3.435172
  C     3.573031  9.219070  3.340919
  C     2.006758  4.655703  2.817478
  C     2.378403  8.605570  2.758157
  N     4.184276  5.558493  2.674542
  N     4.585399  9.349877  2.546498
  N     2.135326  4.557320  1.494245
  N     2.580692  8.392614  1.455619
  N     1.418216  5.139855  5.298247
  N     2.080951  8.816160  5.417129
  S     0.721732  4.416612  3.992074
  S     1.185778  8.326969  4.114994
  S     3.622871  5.144296  1.142207
  S     4.085593  8.904513  1.025999
  S     3.050467  5.382841  5.139684
  S     3.556406  9.461805  5.071107
