16  
    
  C     2.191733  4.471790  3.076089
  C     2.033875  8.285425  3.151505
  C     1.068303  3.957081  2.286605
  C     0.871187  7.622857  2.581525
  N     3.324163  4.307715  2.429165
  N     3.079678  8.263239  2.295646
  N     1.278594  3.840706  0.981466
  N     0.930518  7.144025  1.323922
  N     0.241243  4.456873  4.708310
  N     0.058419  8.430375  4.927684
  S    -0.385569  3.843365  3.221731
  S    -0.516131  7.528950  3.605330
  S     2.991545  4.019095  0.812335
  S     2.542029  7.430865  0.948378
  S     1.889260  4.755685  4.754853
  S     1.647640  9.015694  4.712957
