16  
    
  C    -0.050313  3.339285  2.567177
  C    -0.007761  7.130858  2.667929
  C    -1.104604  2.579028  1.846081
  C    -1.213076  6.704481  1.994168
  N     0.975145  3.645919  1.749385
  N     0.955087  7.427291  1.794912
  N    -0.967095  2.676422  0.524474
  N    -1.085514  6.566942  0.691940
  N    -1.854788  2.959505  4.322452
  N    -1.773640  6.530264  4.482342
  S    -2.425742  2.298326  2.874278
  S    -2.565268  6.415385  3.015602
  S     0.586075  3.206739  0.226291
  S     0.374857  7.209924  0.295563
  S    -0.268448  3.523191  4.250698
  S    -0.183239  7.052651  4.405511
