16  
    
  C     1.001554  4.152627  2.645770
  C     1.110177  7.680133  3.148130
  C    -0.159893  3.340451  2.206003
  C    -0.202311  7.247597  2.523219
  N     1.945928  4.121471  1.765389
  N     2.141464  7.684207  2.295452
  N    -0.055273  2.838336  0.989411
  N    -0.128346  7.068134  1.195232
  N    -0.747268  4.341014  4.521954
  N    -0.620406  7.503600  5.078814
  S    -1.465497  3.422671  3.377956
  S    -1.474344  7.180791  3.660317
  S     1.463080  3.328703  0.401427
  S     1.430184  7.322798  0.828195
  S     0.875905  4.777823  4.263906
  S     0.994292  8.013333  4.860564
