16  
    
  C     1.939996  4.065148  3.188450
  C     1.907888  7.964559  3.099381
  C     0.606678  4.020025  2.583000
  C     0.673643  7.493304  2.441362
  N     2.882489  4.386191  2.289601
  N     2.890100  8.308939  2.252335
  N     0.617951  3.871100  1.252741
  N     0.747597  7.398988  1.103006
  N     0.184075  4.293467  5.107669
  N     0.216174  7.471243  4.948694
  S    -0.751606  4.045487  3.724316
  S    -0.610377  7.103038  3.559785
  S     2.211933  4.051511  0.829178
  S     2.266686  8.027527  0.731068
  S     1.798454  4.263356  4.878140
  S     1.820271  7.847371  4.804354
