16  
    
  C    -3.735204  1.906625  1.926415
  C    -3.567592  5.437676  1.937256
  C    -4.721367  1.076724  1.309262
  C    -4.770983  4.911226  1.379563
  N    -2.788940  2.402009  1.135761
  N    -2.563056  5.442721  1.073423
  N    -4.350325  0.789565  0.073797
  N    -4.712094  4.489415  0.119196
  N    -5.575007  1.378411  3.777803
  N    -5.209238  5.296163  3.960067
  S    -6.002799  0.521999  2.357140
  S    -6.061878  4.924629  2.565018
  S    -2.986614  1.679254 -0.347499
  S    -3.189204  4.850516 -0.402655
  S    -4.247285  2.364702  3.551689
  S    -3.550447  5.816071  3.689940
