16  
    
  C     0.590097  3.807435  3.141209
  C     1.018286  7.528901  2.686975
  C    -0.383630  3.083823  2.357775
  C    -0.093734  7.033890  2.045817
  N     1.694014  4.212196  2.463719
  N     2.080901  7.808175  1.961881
  N    -0.232052  3.265236  1.030624
  N     0.114905  6.914997  0.742517
  N    -1.355462  2.994482  4.732467
  N    -0.649650  7.030043  4.489467
  S    -1.880693  2.681503  3.238005
  S    -1.416186  6.593605  3.077429
  S     1.301126  3.850380  0.842777
  S     1.641619  7.429264  0.382263
  S     0.163591  3.747477  4.830875
  S     0.880788  7.697873  4.405668
