16  
    
  C     3.159157  5.264385  3.404216
  C     3.360126  9.211356  3.782351
  C     2.004244  4.664395  2.739540
  C     2.233357  8.840057  2.951267
  N     4.261095  5.197138  2.677680
  N     4.398943  9.417266  3.004742
  N     2.144576  4.475384  1.418574
  N     2.369088  8.698733  1.661515
  N     1.367720  4.861047  5.257690
  N     1.395635  8.740729  5.343885
  S     0.648707  4.449096  3.824616
  S     0.761949  8.692393  3.885598
  S     3.762599  4.817147  1.087458
  S     3.970166  8.920293  1.447293
  S     2.935211  5.271311  5.091946
  S     2.945485  9.281247  5.497730
