16  
    
  C     0.929906  3.679216  3.004746
  C     1.125760  7.652893  2.984883
  C    -0.377034  3.406542  2.474613
  C    -0.044533  7.057554  2.402953
  N     1.912834  3.860489  2.151370
  N     2.200446  7.702798  2.201143
  N    -0.405361  3.206802  1.179644
  N     0.175247  6.742635  1.141481
  N    -0.740031  3.584427  5.008286
  N    -0.775371  7.666147  4.782952
  S    -1.680773  3.309794  3.648114
  S    -1.436979  7.016674  3.404517
  S     1.135044  3.481897  0.651536
  S     1.745370  7.075361  0.687579
  S     0.827935  4.040985  4.709837
  S     0.894774  7.954820  4.680014
