16  
    
  C    -4.178110  1.388581  1.767959
  C    -4.154801  5.132181  1.969766
  C    -5.380794  1.230655  1.066394
  C    -5.415199  4.945999  1.346871
  N    -3.076791  1.316797  1.003724
  N    -3.109534  5.191182  1.139601
  N    -5.246974  1.135921 -0.243988
  N    -5.406653  4.702858  0.050271
  N    -6.067139  1.555012  3.539435
  N    -5.872094  5.286535  3.862369
  S    -6.834590  1.259193  2.109409
  S    -6.697043  4.984296  2.441806
  S    -3.584489  1.152602 -0.530548
  S    -3.812687  4.820527 -0.369350
  S    -4.457788  1.530042  3.506883
  S    -4.243755  5.337187  3.715719
