16  
    
  C    -0.368517  3.406250  2.598249
  C    -0.343509  6.900107  2.359383
  C    -1.630980  3.017597  2.013524
  C    -1.567038  6.539405  1.822168
  N     0.609135  3.442311  1.708982
  N     0.562006  7.191670  1.430990
  N    -1.649582  3.056600  0.701416
  N    -1.674441  6.388653  0.528332
  N    -1.965871  3.208469  4.526843
  N    -1.967372  6.691273  4.334387
  S    -2.941971  2.934899  3.222164
  S    -2.813324  6.245235  2.942733
  S    -0.051187  3.197396  0.217138
  S    -0.112351  6.742511 -0.019926
  S    -0.407109  3.559069  4.299627
  S    -0.378035  7.130955  4.121032
