16  
    
  C     2.847057  5.166386  3.174202
  C     2.848967  9.057825  3.629409
  C     1.717632  4.472195  2.618127
  C     1.836168  8.378313  2.893661
  N     3.838537  5.359704  2.342169
  N     3.757735  9.635097  2.821726
  N     1.847618  4.187415  1.333309
  N     2.051976  8.255902  1.561723
  N     1.260981  4.893701  5.126327
  N     1.105047  8.646761  5.429779
  S     0.525214  4.166350  3.877252
  S     0.470879  8.092696  3.999800
  S     3.277689  4.854842  0.858616
  S     3.532790  9.078206  1.290782
  S     2.813393  5.476686  4.878501
  S     2.649811  9.289275  5.279464
