16  
    
  C    -4.656962  0.793680  1.413072
  C    -4.822861  4.527860  1.848610
  C    -5.910340  0.639070  0.751464
  C    -6.038760  4.323306  1.111154
  N    -3.591864  1.020216  0.633311
  N    -3.785507  4.737362  1.068435
  N    -5.742271  0.739404 -0.579721
  N    -5.901930  4.266527 -0.204892
  N    -6.517338  0.826231  3.236327
  N    -6.562821  4.465105  3.651821
  S    -7.363619  0.675175  1.775465
  S    -7.384006  4.198903  2.191711
  S    -4.205683  0.981331 -0.889555
  S    -4.250402  4.543967 -0.477908
  S    -4.847427  1.071286  3.089032
  S    -4.887367  4.768428  3.548055
