16  
    
  C     1.969525  4.885654  3.040557
  C     2.345880  8.442500  3.171400
  C     0.830657  4.342499  2.314493
  C     1.128493  7.972673  2.483382
  N     2.957142  5.264973  2.220522
  N     3.325612  8.782601  2.356844
  N     1.075514  3.908623  1.035584
  N     1.209618  7.933589  1.168271
  N     0.184737  4.386571  4.952605
  N     0.472310  8.233477  4.987842
  S    -0.556616  4.149599  3.381878
  S    -0.224469  7.740104  3.566940
  S     2.525406  4.689421  0.678929
  S     2.822495  8.376655  0.757763
  S     1.734310  5.121776  4.800530
  S     2.084798  8.748545  4.851184
