16  
    
  C    -4.137140  1.348044  1.809619
  C    -4.146133  5.263048  1.947233
  C    -5.400814  1.208727  1.057689
  C    -5.412567  5.022397  1.342350
  N    -3.036506  1.259624  1.047628
  N    -3.094363  5.226717  1.126011
  N    -5.236094  1.154839 -0.254522
  N    -5.375231  4.946232  0.013380
  N    -6.059511  1.528024  3.487168
  N    -5.897985  5.140658  3.850019
  S    -6.838643  1.272084  2.002064
  S    -6.781547  4.934286  2.419429
  S    -3.630790  1.155569 -0.550172
  S    -3.750089  4.899600 -0.331980
  S    -4.338993  1.594024  3.450489
  S    -4.198419  5.293201  3.660311
