16  
    
  C     1.914070  4.290977  3.079649
  C     1.985175  7.990904  3.119583
  C     0.652713  4.068519  2.451918
  C     0.794721  7.610181  2.422306
  N     2.935146  4.172748  2.235569
  N     3.023617  8.205638  2.313195
  N     0.680448  3.830071  1.142045
  N     0.881787  7.495154  1.117633
  N     0.216903  4.266541  5.103569
  N     0.167338  7.530824  4.950946
  S    -0.694865  3.984902  3.651035
  S    -0.531501  7.231538  3.464425
  S     2.275544  3.978798  0.754530
  S     2.465640  7.867606  0.739925
  S     1.875033  4.568147  4.820896
  S     1.772462  8.015840  4.877907
