16  
    
  C     2.995902  5.192265  3.382067
  C     3.441816  9.124246  3.352700
  C     1.831019  4.679616  2.669585
  C     2.185139  8.703502  2.858848
  N     4.006407  5.553268  2.599505
  N     4.459805  9.102094  2.462913
  N     2.106924  4.406892  1.348671
  N     2.268341  8.323253  1.541311
  N     1.340572  4.707584  5.297185
  N     1.918269  9.012251  5.468511
  S     0.513662  4.303187  3.875351
  S     0.935052  8.587645  4.160102
  S     3.668986  4.887404  1.073426
  S     3.761079  8.678319  1.039697
  S     2.769886  5.556337  5.085785
  S     3.540944  9.265031  5.019890
