16  
    
  C    -1.816382  2.557054  2.052399
  C    -1.869721  6.430160  2.200907
  C    -3.085074  2.043446  1.500150
  C    -2.998481  5.620497  1.713642
  N    -0.789454  2.600228  1.205913
  N    -0.886217  6.650797  1.332359
  N    -2.946344  1.807584  0.200529
  N    -2.739157  5.169523  0.465503
  N    -3.450074  2.121968  4.029816
  N    -3.609558  6.211006  4.142865
  S    -4.338224  1.865834  2.659053
  S    -4.261545  5.310663  2.900639
  S    -1.381935  2.148109 -0.245165
  S    -1.337629  5.949320 -0.127312
  S    -1.884132  2.577819  3.813913
  S    -2.114148  6.861830  3.836883
