16  
    
  C     1.980320  4.772708  2.983765
  C     2.368227  8.587654  3.121276
  C     0.840377  4.099893  2.380418
  C     1.136778  8.095839  2.494638
  N     2.987929  5.049636  2.169098
  N     3.391264  8.597267  2.262382
  N     0.965449  4.111834  1.048377
  N     1.251489  7.853011  1.202730
  N     0.318670  4.335519  4.791546
  N     0.463511  8.355846  4.911786
  S    -0.519603  4.039213  3.464445
  S    -0.187429  7.747628  3.500153
  S     2.546050  4.575070  0.660469
  S     2.744719  8.249385  0.770340
  S     1.821624  4.997763  4.699777
  S     2.034024  8.843878  4.894373
