16  
    
  C    -1.486977  2.988016  2.045436
  C    -0.987224  7.036908  2.316809
  C    -2.585646  2.333306  1.331239
  C    -2.272130  6.631012  1.793851
  N    -0.595120  3.425611  1.176444
  N     0.034042  7.121251  1.402486
  N    -2.393838  2.135514  0.027915
  N    -2.294695  6.329997  0.492710
  N    -3.272986  2.602814  3.799119
  N    -2.686323  6.659892  4.372469
  S    -3.878246  1.880542  2.440503
  S    -3.585107  6.684919  2.958967
  S    -0.942412  2.839364 -0.330679
  S    -0.779855  6.712688 -0.052942
  S    -1.838909  3.412343  3.694453
  S    -1.070509  7.115408  4.104514
