16  
    
  C    -2.761026  2.266487  1.954074
  C    -2.636947  5.803539  2.094518
  C    -3.974363  2.041219  1.262986
  C    -3.830502  5.377331  1.444665
  N    -1.670682  2.375734  1.197373
  N    -1.556296  5.858083  1.292752
  N    -3.824309  1.975287 -0.070118
  N    -3.641938  5.066247  0.151194
  N    -4.576065  1.887614  3.785660
  N    -4.465613  5.691982  3.894132
  S    -5.347287  1.702963  2.306358
  S    -5.242791  5.300750  2.488899
  S    -2.158707  2.107101 -0.371196
  S    -2.026763  5.426869 -0.202782
  S    -2.965874  2.439061  3.736758
  S    -2.862290  6.210604  3.696477
