16  
    
  C    -2.589621  2.121115  1.995405
  C    -2.443334  5.771754  2.134741
  C    -3.858795  1.737216  1.372268
  C    -3.653715  5.405251  1.400733
  N    -1.540615  2.162082  1.190300
  N    -1.349049  5.849212  1.406272
  N    -3.719184  1.653713  0.051874
  N    -3.446776  5.130822  0.104579
  N    -4.325920  2.193705  3.912475
  N    -4.479787  5.962882  3.803941
  S    -5.185783  2.057894  2.481715
  S    -5.130153  5.264371  2.401337
  S    -2.128258  1.855245 -0.346380
  S    -1.859627  5.337762 -0.193475
  S    -2.635084  2.367461  3.740810
  S    -2.826247  6.024907  3.814667
