16  
    
  C     0.959047  4.206799  2.569693
  C     1.119015  7.670771  3.155061
  C    -0.098112  3.359857  2.223519
  C    -0.133693  7.351272  2.556824
  N     2.050153  4.111985  1.743777
  N     2.105076  7.779500  2.260579
  N     0.066183  2.878054  0.983469
  N    -0.132265  7.141831  1.241626
  N    -0.754433  4.331019  4.489060
  N    -0.617294  7.557495  5.027927
  S    -1.490354  3.403903  3.334929
  S    -1.505216  7.228045  3.671042
  S     1.512591  3.395101  0.400880
  S     1.463851  7.379972  0.822937
  S     0.831393  4.763424  4.205790
  S     1.007588  8.035674  4.877453
