16  
    
  C    -2.566959  2.116673  2.007964
  C    -2.482009  5.800121  2.097225
  C    -3.860376  1.810114  1.356540
  C    -3.676130  5.399743  1.424158
  N    -1.527226  2.173862  1.190522
  N    -1.307967  5.790783  1.380776
  N    -3.716036  1.620524  0.024916
  N    -3.469823  5.109324  0.148306
  N    -4.282111  2.224363  3.900299
  N    -4.463594  5.924769  3.776841
  S    -5.147290  2.069279  2.521113
  S    -5.151643  5.270259  2.398137
  S    -2.125833  1.781349 -0.345158
  S    -1.834348  5.369145 -0.174518
  S    -2.610828  2.350207  3.752800
  S    -2.795995  6.010562  3.802077
