16  
    
  C    -0.035902  3.633602  2.430445
  C     0.445814  7.406628  2.811869
  C    -1.212468  3.134399  1.843378
  C    -0.740389  6.885233  2.206190
  N     0.904936  3.885559  1.524600
  N     1.421020  7.616897  1.918670
  N    -1.135223  2.774125  0.592580
  N    -0.703591  6.702950  0.888729
  N    -1.744853  3.500712  4.360476
  N    -1.447973  7.327221  4.595969
  S    -2.508245  2.985463  2.947780
  S    -2.144057  6.669921  3.228569
  S     0.427231  3.196763  0.106976
  S     0.831305  7.183322  0.458080
  S    -0.146540  4.025063  4.155364
  S     0.125637  7.854198  4.481696
