16  
    
  C    -1.533046  3.021528  1.996017
  C    -1.026886  6.847789  2.329353
  C    -2.578817  2.191230  1.385790
  C    -2.309913  6.491729  1.767624
  N    -0.447843  3.258709  1.214680
  N    -0.172943  7.139889  1.333413
  N    -2.444798  2.115982  0.056756
  N    -2.304696  6.349347  0.432553
  N    -3.326451  2.512722  3.839366
  N    -2.698780  6.842039  4.312190
  S    -3.865343  1.759955  2.432989
  S    -3.562364  6.610727  2.947874
  S    -0.933079  2.729347 -0.312092
  S    -0.768283  6.659695 -0.129589
  S    -1.903436  3.355843  3.634782
  S    -1.114492  7.124594  4.033351
