16  
    
  C    -4.561609  1.017287  1.565707
  C    -4.829741  4.658905  1.618716
  C    -5.848912  0.885471  0.910030
  C    -6.083750  4.373927  0.905327
  N    -3.494340  1.213534  0.788735
  N    -3.777403  4.830350  0.840706
  N    -5.715624  0.847227 -0.419338
  N    -5.965141  4.382757 -0.426308
  N    -6.318325  0.726734  3.368552
  N    -6.610265  4.230357  3.391143
  S    -7.186472  0.576355  1.985638
  S    -7.401095  4.052743  1.929011
  S    -4.145852  1.028327 -0.721009
  S    -4.380564  4.757730 -0.699535
  S    -4.704500  0.939844  3.314214
  S    -4.952180  4.515483  3.356501
