16  
    
  C     2.130090  4.488539  2.924881
  C     2.150407  8.561357  3.059374
  C     0.959506  3.878514  2.364276
  C     1.039994  7.776805  2.597208
  N     3.241756  4.541155  2.204018
  N     3.117905  8.683629  2.148162
  N     1.121719  3.722488  1.048673
  N     1.146568  7.219594  1.402565
  N     0.416371  4.239465  4.765904
  N     0.279329  8.489373  4.939569
  S    -0.403317  3.887900  3.369927
  S    -0.391419  7.854213  3.553746
  S     2.723176  4.177962  0.654844
  S     2.588465  7.794748  0.850822
  S     1.982984  4.564017  4.649790
  S     1.846612  9.091851  4.773993
