16  
    
  C    -5.523497  0.998340  1.346391
  C    -5.001124  4.916434  1.327870
  C    -6.683950  0.406438  0.648918
  C    -6.126847  4.161097  0.781220
  N    -4.525096  1.275177  0.526488
  N    -4.166620  5.432335  0.450795
  N    -6.542935  0.350903 -0.663217
  N    -6.099413  4.080153 -0.529005
  N    -7.215095  0.470150  3.200954
  N    -6.671732  4.394291  3.297644
  S    -8.011575  0.106887  1.784661
  S    -7.449042  3.841114  1.938318
  S    -4.989900  0.879599 -1.002551
  S    -4.801206  4.968253 -1.041707
  S    -5.700504  1.221986  3.124753
  S    -5.327362  5.341838  2.997756
