16  
    
  C    -5.509316  1.086969  1.333825
  C    -5.282021  5.095653  1.383475
  C    -6.671437  0.627702  0.669076
  C    -6.327002  4.404160  0.744807
  N    -4.500162  1.386338  0.501382
  N    -4.302777  5.495901  0.564115
  N    -6.458620  0.442014 -0.641942
  N    -6.111663  4.176637 -0.561109
  N    -7.343055  0.652612  3.146870
  N    -6.875899  4.484457  3.258387
  S    -7.926022  0.020063  1.693154
  S    -7.454537  3.770834  1.881334
  S    -4.970638  0.975323 -0.989592
  S    -4.633718  4.916101 -0.963122
  S    -5.728090  1.113969  2.995831
  S    -5.402979  5.271365  3.131490
