16  
    
  C     2.889322  5.230149  3.293607
  C     2.917487  9.060415  3.432606
  C     1.688796  4.658841  2.704052
  C     1.761447  8.475607  2.777053
  N     3.804447  5.526311  2.409162
  N     3.842407  9.471782  2.561068
  N     1.826817  4.281364  1.442904
  N     1.796380  8.340195  1.467943
  N     1.397847  4.654369  5.206544
  N     1.143543  8.403224  5.228423
  S     0.491371  4.193354  3.845012
  S     0.586907  7.827709  3.781024
  S     3.271909  4.993881  0.950911
  S     3.349267  8.898525  1.037377
  S     2.788532  5.518725  4.978771
  S     2.643174  9.121752  5.228613
