16  
    
  C     1.923191  4.183462  3.337974
  C     1.758545  7.826580  3.033958
  C     0.595008  4.142416  2.691920
  C     0.427094  7.597405  2.411832
  N     2.960728  4.366866  2.512588
  N     2.779194  7.960693  2.195500
  N     0.721848  4.188314  1.359303
  N     0.453195  7.629619  1.086624
  N     0.225417  3.943385  5.210638
  N     0.071823  7.347422  4.919240
  S    -0.688991  3.758971  3.815442
  S    -0.777571  7.107765  3.536309
  S     2.335737  4.348272  0.989467
  S     2.069070  7.907727  0.697147
  S     1.798861  4.262119  5.100114
  S     1.695927  7.691202  4.778160
