16  
    
  C     0.448546  3.573906  2.984299
  C     0.454559  7.510033  2.878234
  C    -0.872848  3.369687  2.333352
  C    -0.868769  7.251896  2.359067
  N     1.452256  3.675174  2.112492
  N     1.359373  7.699279  1.925401
  N    -0.863375  3.680414  1.043068
  N    -0.942732  7.237251  1.027113
  N    -1.282203  3.031105  4.812832
  N    -1.180286  7.618321  4.890409
  S    -2.097546  3.058948  3.401705
  S    -2.128244  7.347334  3.583456
  S     0.775058  3.936897  0.613010
  S     0.661954  7.491687  0.470402
  S     0.360548  3.381074  4.716651
  S     0.460776  7.703077  4.622083
