16  
    
  C    -4.873310  1.285524  1.461552
  C    -4.765421  4.813326  1.936610
  C    -5.964573  0.659242  0.832594
  C    -5.907191  4.234604  1.313973
  N    -3.781237  1.380927  0.691015
  N    -3.725401  4.993615  1.151933
  N    -5.771465  0.498410 -0.480196
  N    -5.713569  3.975437  0.016954
  N    -6.587031  0.756806  3.344681
  N    -6.393425  4.382627  3.779975
  S    -7.248673  0.301552  1.901454
  S    -7.204140  4.002456  2.429786
  S    -4.226629  0.844698 -0.763877
  S    -4.098376  4.341102 -0.289076
  S    -4.959259  1.244079  3.202778
  S    -4.862578  5.020421  3.613582
