16  
    
  C    -0.724137  3.075637  2.473242
  C    -0.989907  6.381381  2.550985
  C    -1.928094  2.553498  1.879732
  C    -2.160680  6.018551  1.808784
  N     0.284907  3.108357  1.589440
  N     0.068817  6.502583  1.784345
  N    -1.891354  2.457553  0.536330
  N    -2.036669  5.741544  0.531950
  N    -2.424234  2.724055  4.356544
  N    -2.854901  6.269801  4.181681
  S    -3.302273  2.473548  2.981108
  S    -3.516053  5.630330  2.777763
  S    -0.329488  2.765269  0.089750
  S    -0.484643  6.260249  0.244930
  S    -0.860530  3.242265  4.186555
  S    -1.259862  6.626920  4.202262
