16  
    
  C    -0.378796  3.387073  2.691800
  C    -0.327231  6.998383  2.457008
  C    -1.449508  2.622354  2.063032
  C    -1.458016  6.415350  1.873447
  N     0.713754  3.552438  1.966587
  N     0.761378  7.200152  1.729795
  N    -1.168667  2.223634  0.836702
  N    -1.271228  5.989611  0.626766
  N    -2.259879  3.059988  4.431651
  N    -2.174791  7.025190  4.373112
  S    -2.797472  2.306818  3.076424
  S    -2.830934  6.237588  3.060732
  S     0.302738  2.861590  0.460893
  S     0.285301  6.483872  0.210832
  S    -0.744975  3.707593  4.436041
  S    -0.586412  7.479284  4.165097
