16  
    
  C     3.102428  5.107061  3.356966
  C     3.073258  8.898127  3.878506
  C     1.919743  4.741077  2.636592
  C     1.766416  8.470884  3.339681
  N     4.189668  5.103386  2.591087
  N     3.960557  9.176414  2.912100
  N     2.046839  4.502083  1.356530
  N     1.808018  8.287480  2.011555
  N     1.146390  5.048215  5.051376
  N     1.342926  8.940198  5.791206
  S     0.448419  4.648447  3.591182
  S     0.486749  8.706892  4.430752
  S     3.634292  4.855963  0.987202
  S     3.300837  8.640439  1.470517
  S     2.794623  5.258201  5.130209
  S     2.946507  9.368655  5.650484
