16  
    
  C    -3.530880  1.941267  1.569740
  C    -3.898767  5.285509  1.589694
  C    -4.691752  1.376362  0.997589
  C    -5.113027  4.705037  1.089388
  N    -2.528840  2.156084  0.746853
  N    -2.884382  5.442969  0.714783
  N    -4.608835  1.188360 -0.321193
  N    -5.107793  4.590120 -0.221897
  N    -5.220574  1.561035  3.614007
  N    -5.581600  5.038668  3.629245
  S    -5.896728  0.967256  2.207949
  S    -6.427710  4.458032  2.253377
  S    -3.099738  1.718875 -0.767106
  S    -3.581603  4.884643 -0.755544
  S    -3.662757  2.133265  3.336350
  S    -4.043008  5.572748  3.307426
