16  
    
  C    -0.311584  3.361762  2.565118
  C    -0.042613  6.909519  2.426063
  C    -1.347055  2.571889  2.023198
  C    -1.261019  6.523223  1.732175
  N     0.777641  3.486971  1.790402
  N     0.935632  7.307580  1.594675
  N    -1.208898  2.420866  0.717932
  N    -1.186031  6.635857  0.412029
  N    -1.928497  2.872962  4.553144
  N    -1.891762  6.428533  4.278016
  S    -2.660731  2.238438  3.126773
  S    -2.541968  6.006883  2.802805
  S     0.313573  2.944919  0.300136
  S     0.362245  7.068374  0.031098
  S    -0.393496  3.476513  4.311463
  S    -0.347989  6.963296  4.217368
