16  
    
  C     2.768881  5.122492  3.727023
  C     2.214223  8.663965  3.411388
  C     1.515755  4.614827  3.184301
  C     1.216861  7.890472  2.680683
  N     3.760174  5.164388  2.825788
  N     3.296122  9.023458  2.707693
  N     1.548938  4.231244  1.911451
  N     1.571891  7.642445  1.422037
  N     1.156077  4.948727  5.635234
  N     0.406463  8.287402  5.176889
  S     0.314505  4.288196  4.361115
  S    -0.156237  7.532270  3.768990
  S     3.070409  4.578158  1.422178
  S     3.055920  8.343261  1.197114
  S     2.606236  5.637133  5.413735
  S     1.862403  9.032581  5.096260
