16  
    
  C    -0.298196  3.125225  2.636755
  C    -0.277929  7.073784  2.405898
  C    -1.503393  2.707716  2.053755
  C    -1.325408  6.253928  1.881221
  N     0.598752  3.492315  1.725849
  N     0.704830  7.242808  1.552860
  N    -1.514438  2.464225  0.734675
  N    -1.192398  5.914880  0.607154
  N    -1.928836  2.899081  4.611205
  N    -1.972757  6.763420  4.249239
  S    -2.802894  2.511893  3.217419
  S    -2.607738  5.897999  2.939813
  S     0.031300  2.905809  0.248123
  S     0.179078  6.630499  0.108475
  S    -0.320131  3.312545  4.411741
  S    -0.435572  7.374433  4.072768
