16  
    
  C    -5.479040  0.994714  1.316636
  C    -5.331393  5.175718  1.480252
  C    -6.600659  0.534185  0.593839
  C    -6.433785  4.495724  0.807444
  N    -4.550516  1.434125  0.496556
  N    -4.338465  5.458764  0.666018
  N    -6.412527  0.471379 -0.728373
  N    -6.199680  4.268605 -0.454507
  N    -7.295361  0.585447  3.115198
  N    -6.977093  4.272367  3.262185
  S    -7.921904  0.088974  1.626438
  S    -7.683959  3.912900  1.796275
  S    -4.930299  1.103552 -1.046408
  S    -4.692012  4.842171 -0.844361
  S    -5.701758  1.134091  3.043878
  S    -5.599179  5.206838  3.157656
