16  
    
  C     0.543998  3.626461  2.727172
  C     0.747271  7.643031  2.664705
  C    -0.623360  3.103356  2.103598
  C    -0.426047  7.172395  2.065362
  N     1.637036  3.757051  1.941480
  N     1.656906  8.040492  1.792313
  N    -0.528093  3.309386  0.792284
  N    -0.421872  7.165046  0.756993
  N    -1.237911  3.289244  4.625849
  N    -0.822501  6.857618  4.481522
  S    -2.020593  2.815390  3.167710
  S    -1.693277  6.586997  3.094744
  S     1.024100  3.585995  0.427406
  S     1.061168  7.763855  0.286328
  S     0.352318  3.615783  4.454135
  S     0.633065  7.652088  4.396255
