16  
    
  C    -4.174234  1.520709  1.906085
  C    -4.049242  5.278947  1.844613
  C    -5.376676  0.960170  1.354723
  C    -5.299357  4.641622  1.259209
  N    -3.226137  1.705092  0.997486
  N    -3.068372  5.358200  0.940058
  N    -5.259494  0.517447  0.090813
  N    -5.189451  4.230068  0.017009
  N    -5.960142  1.718811  3.724481
  N    -5.780659  5.189251  3.608713
  S    -6.713857  0.928201  2.457115
  S    -6.621440  4.560468  2.347179
  S    -3.792517  1.050223 -0.386701
  S    -3.659385  4.623447 -0.456492
  S    -4.315934  2.117726  3.529246
  S    -4.170761  5.659475  3.513790
