16  
    
  C     3.523983  5.285752  3.592070
  C     3.485391  9.035979  3.508343
  C     2.247440  4.980744  2.929964
  C     2.358160  8.375631  2.849055
  N     4.553070  5.509285  2.805355
  N     4.465164  9.478103  2.805450
  N     2.400459  4.895008  1.602902
  N     2.485058  8.403055  1.525319
  N     1.814479  4.978030  5.449048
  N     1.752018  8.659927  5.358005
  S     0.936053  4.763127  4.013833
  S     1.004987  8.097008  4.008066
  S     3.961013  5.349107  1.262630
  S     4.068403  9.098913  1.213741
  S     3.450844  5.421757  5.288546
  S     3.283559  9.323005  5.173340
