16  
    
  C    -0.325974  3.311754  2.634847
  C    -0.288952  7.084674  2.453931
  C    -1.440301  2.612075  2.058498
  C    -1.512995  6.758669  1.663756
  N     0.741413  3.448379  1.849440
  N     0.810598  7.173618  1.730247
  N    -1.369080  2.451158  0.753737
  N    -1.198271  6.482948  0.402859
  N    -2.173241  3.158894  4.430534
  N    -2.144776  6.819917  4.156545
  S    -2.775415  2.372476  3.137493
  S    -2.885237  6.555103  2.675101
  S     0.212693  2.765114  0.375862
  S     0.389638  6.751618  0.208150
  S    -0.664925  3.758732  4.330052
  S    -0.520115  7.302441  4.121191
