16  
    
  C    -1.176842  2.986463  2.257859
  C    -0.955293  6.907324  2.449647
  C    -2.529987  2.778259  1.710917
  C    -2.232465  6.642441  1.871537
  N    -0.163449  3.021996  1.383254
  N    -0.027620  7.084234  1.497288
  N    -2.525364  2.797313  0.374962
  N    -2.247679  6.445038  0.537958
  N    -2.883433  3.132233  4.269220
  N    -2.614695  6.736422  4.407187
  S    -3.733354  2.738216  2.865251
  S    -3.526151  6.558995  3.006364
  S    -0.931834  2.890693 -0.113186
  S    -0.722781  6.883088  0.017878
  S    -1.212096  3.304643  3.993502
  S    -0.997650  7.009780  4.206670
