16  
    
  C     3.198127  4.897957  3.558719
  C     3.501598  8.953688  3.677021
  C     1.879261  4.661091  2.935443
  C     2.145035  8.824971  3.224146
  N     4.153933  5.121247  2.680443
  N     4.380026  8.597387  2.754311
  N     1.936032  4.424180  1.629438
  N     1.979810  8.339766  2.013483
  N     1.406546  5.005611  5.390945
  N     1.747683  9.332761  5.709332
  S     0.590379  4.697761  3.990658
  S     0.826500  9.063123  4.298340
  S     3.506700  4.691112  1.175610
  S     3.452650  8.228232  1.397953
  S     3.064579  5.396229  5.193888
  S     3.438070  9.179308  5.432387
