16  
    
  C     1.882878  4.261696  3.352432
  C     1.822818  7.808211  3.052363
  C     0.639091  3.939174  2.713138
  C     0.561502  7.532920  2.461278
  N     2.929773  4.337130  2.530030
  N     2.792466  8.011631  2.158499
  N     0.650622  4.222207  1.389087
  N     0.503817  7.598950  1.141361
  N     0.137417  3.926520  5.234762
  N     0.110107  7.301375  4.979111
  S    -0.732271  3.854179  3.807108
  S    -0.754406  7.090135  3.527128
  S     2.326177  4.260327  0.955370
  S     2.040259  7.973186  0.671193
  S     1.830490  4.233998  5.000628
  S     1.712399  7.730862  4.790750
