16  
    
  C    -4.393018  1.017568  1.825253
  C    -4.709030  4.603873  1.633091
  C    -5.660797  0.675099  1.219347
  C    -5.871819  4.356881  0.879768
  N    -3.451661  1.450012  1.028047
  N    -3.701081  5.041893  0.886630
  N    -5.596476  0.754506 -0.083841
  N    -5.762742  4.466863 -0.424570
  N    -6.159876  0.634993  3.610923
  N    -6.612751  4.187962  3.260421
  S    -6.985618  0.420929  2.206553
  S    -7.225337  3.829788  1.706404
  S    -4.097084  1.316940 -0.508453
  S    -4.206476  5.022304 -0.687469
  S    -4.544882  1.108087  3.510840
  S    -4.938476  4.470663  3.348243
