16  
    
  C    -1.470023  2.571239  2.260784
  C    -1.436464  6.596069  2.221686
  C    -2.559236  1.975978  1.605698
  C    -2.614097  6.107094  1.670630
  N    -0.419836  2.954117  1.519060
  N    -0.450594  6.763434  1.332415
  N    -2.335187  1.743010  0.323435
  N    -2.535316  5.811984  0.358994
  N    -3.424411  2.452493  3.950034
  N    -3.006080  6.220128  4.228675
  S    -3.953741  1.742833  2.569358
  S    -3.929835  6.093879  2.831247
  S    -0.797312  2.330760 -0.007231
  S    -0.993920  6.192748 -0.106133
  S    -1.875438  3.024335  3.921706
  S    -1.490023  6.788936  3.905619
