16  
    
  C     3.105712  5.112999  3.356894
  C     3.066866  8.898045  3.873795
  C     1.919626  4.726007  2.644135
  C     1.759748  8.468777  3.343819
  N     4.194850  5.098549  2.590544
  N     3.962415  9.172957  2.912427
  N     2.042418  4.507275  1.362042
  N     1.799630  8.280684  2.006549
  N     1.148260  5.046750  5.048017
  N     1.346975  8.944077  5.796137
  S     0.449233  4.650856  3.589797
  S     0.484392  8.711408  4.436850
  S     3.633907  4.859054  0.991804
  S     3.305090  8.637089  1.473263
  S     2.797465  5.258273  5.131138
  S     2.955409  9.367280  5.643288
