16  
    
  C    -5.552264  0.865128  1.431362
  C    -5.353595  5.012262  1.199333
  C    -6.784966  0.442613  0.779189
  C    -6.543889  4.382046  0.701200
  N    -4.501716  1.118490  0.629816
  N    -4.389046  5.260051  0.323838
  N    -6.654293  0.241580 -0.528781
  N    -6.465122  4.145226 -0.613344
  N    -7.364055  0.888750  3.275954
  N    -6.776893  4.371922  3.273709
  S    -8.072649  0.164614  1.912251
  S    -7.686500  3.884828  1.976046
  S    -5.026949  0.620135 -0.922356
  S    -4.955497  4.655689 -1.130789
  S    -5.649791  1.022804  3.230164
  S    -5.310730  5.012324  2.913479
