16  
    
  C    -3.185095  1.893086  1.888242
  C    -3.201054  5.680981  2.116356
  C    -4.381793  1.552004  1.128140
  C    -4.410290  5.157377  1.451623
  N    -2.057096  2.002993  1.205424
  N    -2.291116  6.081366  1.297640
  N    -4.110739  1.351499 -0.144131
  N    -4.281539  5.074162  0.123381
  N    -5.191300  1.769615  3.650381
  N    -4.801004  5.271887  4.023541
  S    -5.713061  1.167134  2.174902
  S    -5.641931  4.824838  2.594570
  S    -2.452207  1.566419 -0.369094
  S    -2.785363  5.590987 -0.236055
  S    -3.548977  2.004342  3.579788
  S    -3.193446  5.821316  3.845668
