16  
    
  C    -5.047829  1.158977  1.757403
  C    -4.874178  4.752990  1.646297
  C    -6.117378  0.439530  1.116382
  C    -5.988031  4.059560  1.008080
  N    -3.934807  1.245023  0.988989
  N    -3.824088  5.021057  0.870590
  N    -5.895125  0.236702 -0.192117
  N    -5.734146  3.912929 -0.289667
  N    -6.826668  0.940823  3.539904
  N    -6.744910  4.631894  3.395919
  S    -7.440040  0.130515  2.198784
  S    -7.412149  3.911991  2.054570
  S    -4.404791  0.779863 -0.497307
  S    -4.281727  4.637390 -0.671481
  S    -5.242289  1.512851  3.443266
  S    -5.214762  5.222262  3.266311
