16  
    
  C     2.958554  5.257074  3.651209
  C     2.909862  8.688410  3.520884
  C     1.737578  5.056602  2.962475
  C     1.738609  8.346792  2.713966
  N     4.025757  5.296277  2.868848
  N     4.060580  8.743415  2.867583
  N     1.829608  4.848728  1.660332
  N     2.051567  8.290265  1.445240
  N     1.094558  4.846795  5.399714
  N     1.047568  8.749049  5.141844
  S     0.335627  4.954662  3.909890
  S     0.338022  8.152132  3.816838
  S     3.394676  5.010011  1.310397
  S     3.669232  8.469906  1.243248
  S     2.762693  5.262533  5.364468
  S     2.679850  8.913669  5.190244
