16  
    
  C     0.606421  3.928256  2.950570
  C     0.677026  7.453903  2.774239
  C    -0.557953  3.366105  2.363745
  C    -0.529691  6.890861  2.186392
  N     1.650501  3.990121  2.159269
  N     1.669274  7.737194  1.942799
  N    -0.387581  2.817393  1.194621
  N    -0.408108  6.631712  0.868042
  N    -1.130403  3.985020  4.820052
  N    -1.031113  7.305293  4.700217
  S    -1.825900  3.236871  3.478693
  S    -1.825684  6.735673  3.294296
  S     1.142595  3.367495  0.673118
  S     1.159862  7.198808  0.487816
  S     0.427177  4.388768  4.672253
  S     0.547970  7.836329  4.426077
