16  
    
  C    -1.468571  2.566488  2.274487
  C    -1.410405  6.668654  2.178862
  C    -2.570601  1.978072  1.585385
  C    -2.625533  6.136820  1.650505
  N    -0.464878  2.993362  1.476605
  N    -0.356971  6.749676  1.346088
  N    -2.296401  1.705433  0.303586
  N    -2.542800  5.817625  0.376060
  N    -3.413446  2.457841  3.926031
  N    -2.971475  6.241675  4.192544
  S    -3.929169  1.733346  2.548250
  S    -3.916845  6.125400  2.822968
  S    -0.803993  2.336541 -0.026950
  S    -1.006040  6.225501 -0.080423
  S    -1.863882  3.022228  3.919727
  S    -1.454071  6.826427  3.880091
