16  
    
  C     1.987277  4.370441  3.400417
  C     1.677753  7.751917  3.013071
  C     0.792769  3.986318  2.729681
  C     0.417127  7.531754  2.359436
  N     2.994170  4.558711  2.550218
  N     2.757604  7.951445  2.216479
  N     0.757869  4.149984  1.422320
  N     0.449223  7.611447  1.014359
  N     0.231364  3.993320  5.254277
  N    -0.056481  7.447022  4.935428
  S    -0.579818  3.691935  3.781732
  S    -0.915996  7.234746  3.515138
  S     2.345888  4.522381  0.993477
  S     2.136848  7.811930  0.699984
  S     1.819175  4.317771  5.098563
  S     1.593169  7.636258  4.757425
