16  
    
  C     2.043177  4.957299  3.151096
  C     2.097373  8.691442  3.397410
  C     0.869908  4.600271  2.450065
  C     0.879975  8.349462  2.740921
  N     3.073446  5.269072  2.386310
  N     3.060630  8.857803  2.518364
  N     1.101793  4.435129  1.145631
  N     0.899361  8.326038  1.423946
  N     0.280545  4.396831  5.027432
  N     0.177808  8.581735  5.152684
  S    -0.491345  4.169893  3.511731
  S    -0.507140  8.057192  3.747346
  S     2.635307  4.937168  0.824941
  S     2.436394  8.654450  0.986538
  S     1.874572  4.850298  4.818832
  S     1.815616  8.903617  5.131413
