16  
    
  C     1.962982  4.910113  3.051776
  C     2.332660  8.436414  3.150373
  C     0.806195  4.376321  2.330667
  C     1.104450  7.951015  2.461846
  N     2.972881  5.301744  2.222730
  N     3.319329  8.812339  2.354367
  N     1.085570  3.907529  1.083120
  N     1.212620  7.929207  1.154467
  N     0.158530  4.415744  4.941678
  N     0.491572  8.219460  4.993068
  S    -0.546156  4.160613  3.372579
  S    -0.236875  7.739996  3.591346
  S     2.527026  4.706164  0.692185
  S     2.833835  8.405245  0.784645
  S     1.710316  5.131784  4.791471
  S     2.086370  8.722250  4.847647
