16  
    
  C     0.988177  3.973621  2.719151
  C     1.025450  7.634548  3.115093
  C    -0.231902  3.418892  2.206128
  C    -0.163619  7.228939  2.545874
  N     1.948037  4.200699  1.762854
  N     2.076019  7.610203  2.327593
  N    -0.166871  2.838879  0.996500
  N    -0.100589  6.997109  1.248664
  N    -0.679865  4.371493  4.593491
  N    -0.596428  7.455526  5.079988
  S    -1.439108  3.410499  3.398211
  S    -1.439565  7.150276  3.687541
  S     1.377305  3.254390  0.434363
  S     1.472037  7.259766  0.775975
  S     0.888840  4.745668  4.326383
  S     0.945524  7.987674  4.811460
