16  
    
  C    -6.047571  0.767878  1.342684
  C    -6.107376  4.334481  1.815730
  C    -7.244550  0.120908  0.804728
  C    -7.249501  3.793598  1.039031
  N    -5.147670  1.236487  0.483457
  N    -5.094493  4.666788  1.037140
  N    -7.224462  0.153521 -0.524154
  N    -7.083091  3.891126 -0.285369
  N    -7.681991  0.260530  3.359678
  N    -7.771252  3.620174  3.539410
  S    -8.494120 -0.205571  1.973795
  S    -8.579130  3.499857  2.096405
  S    -5.835681  0.983499 -1.071251
  S    -5.505714  4.481751 -0.545706
  S    -6.147939  0.865957  3.111961
  S    -6.317706  4.493534  3.522819
