16  
    
  C    -2.917992  2.491061  1.917822
  C    -2.735620  5.883250  2.078554
  C    -4.072464  1.959810  1.187442
  C    -3.943702  5.463138  1.420228
  N    -1.836178  2.569555  1.154543
  N    -1.752848  5.963699  1.205671
  N    -3.900695  1.840558 -0.105384
  N    -3.860305  5.161626  0.156584
  N    -4.713524  1.859071  3.687050
  N    -4.547012  5.738015  3.958281
  S    -5.369409  1.520006  2.163096
  S    -5.273108  5.220169  2.542745
  S    -2.266911  2.196224 -0.364871
  S    -2.301436  5.503835 -0.314141
  S    -3.096129  2.339913  3.602157
  S    -2.901618  6.221892  3.763472
