16  
    
  C    -4.367191  1.442187  1.910234
  C    -4.521323  4.865535  1.681557
  C    -5.535876  0.750292  1.345292
  C    -5.611498  4.298164  0.944027
  N    -3.452604  1.773989  0.982383
  N    -3.533792  5.336128  0.921683
  N    -5.557862  0.775165  0.010085
  N    -5.512660  4.370861 -0.377240
  N    -5.948550  0.864334  4.014825
  N    -6.490557  4.345752  3.467326
  S    -6.824673  0.492361  2.592476
  S    -7.027708  3.793305  1.930908
  S    -4.126154  1.444107 -0.516575
  S    -4.009811  5.005619 -0.683115
  S    -4.446325  1.574122  3.708796
  S    -4.930589  4.898014  3.509156
