16  
    
  C     0.211651  3.557962  2.291425
  C     0.233924  7.497650  2.900278
  C    -1.068546  3.267017  1.710125
  C    -0.883869  6.786492  2.228703
  N     1.210890  3.611385  1.450429
  N     1.274209  7.725282  2.088764
  N    -1.078967  3.225245  0.399170
  N    -0.634337  6.330079  1.001533
  N    -1.570412  3.295975  4.267122
  N    -1.533444  7.202990  4.681984
  S    -2.408923  2.994836  2.811347
  S    -2.235479  6.596467  3.278075
  S     0.430203  3.525296 -0.073208
  S     0.825873  6.963433  0.638516
  S     0.088655  3.522325  4.050657
  S    -0.010834  7.901270  4.546024
