16  
    
  C    -5.453352  1.216983  1.272398
  C    -5.479423  4.852893  1.617867
  C    -6.557959  0.618505  0.649842
  C    -6.686494  4.406089  0.950167
  N    -4.404195  1.453194  0.460766
  N    -4.462140  4.972475  0.751196
  N    -6.393650  0.525368 -0.666426
  N    -6.572948  4.341570 -0.378089
  N    -7.144576  0.668611  3.108373
  N    -7.279788  4.698524  3.357966
  S    -7.778492  0.089902  1.748910
  S    -7.983213  4.114186  1.965103
  S    -4.885425  1.009909 -1.050013
  S    -4.999144  4.730195 -0.788699
  S    -5.604144  1.170002  2.995715
  S    -5.622446  4.909174  3.346984
