16  
    
  C     1.076478  4.234636  2.828829
  C     1.578741  8.680446  2.967019
  C    -0.138977  3.826660  2.039229
  C     0.401762  8.137770  2.372055
  N     2.162100  4.649731  2.111456
  N     2.561922  8.925687  2.112554
  N     0.149834  3.598290  0.758140
  N     0.580924  7.873388  1.091169
  N    -0.857061  3.856663  4.474438
  N    -0.105615  8.465263  4.876838
  S    -1.465881  3.327615  2.994697
  S    -0.898028  8.065321  3.511614
  S     1.698497  4.202240  0.516469
  S     2.128082  8.396158  0.601819
  S     0.668082  4.349718  4.483997
  S     1.458315  8.867743  4.671459
