16  
    
  C     0.614925  3.920208  2.952976
  C     0.671288  7.455138  2.766398
  C    -0.556856  3.386042  2.362926
  C    -0.523331  6.886894  2.194188
  N     1.654457  3.990988  2.153928
  N     1.657654  7.738859  1.936927
  N    -0.385677  2.820935  1.193904
  N    -0.412229  6.630586  0.881932
  N    -1.132744  3.978912  4.818446
  N    -1.030740  7.311215  4.704632
  S    -1.824495  3.232505  3.476944
  S    -1.820263  6.733911  3.299323
  S     1.145936  3.369659  0.674149
  S     1.158293  7.196183  0.481827
  S     0.428202  4.391441  4.671420
  S     0.549559  7.835929  4.423718
