16  
    
  C    -4.453364  1.451906  1.888882
  C    -4.660305  4.821375  1.660716
  C    -5.576185  0.758103  1.332999
  C    -5.735860  4.317487  0.809212
  N    -3.468607  1.821489  1.058904
  N    -3.561218  5.228203  1.018169
  N    -5.566443  0.777870  0.022522
  N    -5.487191  4.424829 -0.495804
  N    -6.042977  0.870195  3.887528
  N    -6.355293  3.911367  3.300597
  S    -6.808306  0.277330  2.446390
  S    -7.098815  3.762981  1.785773
  S    -4.102203  1.391506 -0.396694
  S    -3.969977  5.047026 -0.556186
  S    -4.431753  1.329056  3.617158
  S    -4.912162  4.723544  3.379282
