16  
    
  C    -3.700880  1.890482  1.855597
  C    -3.978443  5.357438  1.778833
  C    -4.833158  1.350497  1.209406
  C    -5.102656  4.856592  1.047271
  N    -2.730497  2.122275  1.000476
  N    -2.933627  5.595124  1.023172
  N    -4.897001  1.375550 -0.108204
  N    -4.922532  4.791306 -0.273008
  N    -5.338937  1.442196  3.689092
  N    -5.815034  5.012926  3.517215
  S    -6.190430  1.145915  2.291239
  S    -6.393404  4.397297  2.046857
  S    -3.330799  1.873350 -0.506302
  S    -3.392775  5.388096 -0.512940
  S    -3.736138  1.918689  3.552753
  S    -4.226885  5.440134  3.492543
