16  
    
  C     3.203961  5.219376  3.503170
  C     3.572313  9.247669  3.415927
  C     1.967985  4.825481  2.829690
  C     2.438246  8.645889  2.796219
  N     4.216655  5.539089  2.674515
  N     4.577419  9.499862  2.531732
  N     2.158548  4.547319  1.549601
  N     2.463754  8.432873  1.463107
  N     1.511787  5.080551  5.332125
  N     2.006363  8.770962  5.433018
  S     0.738185  4.438879  3.984406
  S     1.232220  8.250202  4.034809
  S     3.672832  5.180685  1.199910
  S     4.112891  8.880135  1.039434
  S     3.158185  5.369642  5.123709
  S     3.545072  9.465938  5.145210
