16  
    
  C     0.990630  4.258214  2.600952
  C     1.128974  7.917287  3.153663
  C    -0.014122  3.426931  1.991792
  C    -0.133309  7.565914  2.530564
  N     2.075077  4.321696  1.809658
  N     2.139208  8.054692  2.302203
  N     0.166527  3.129271  0.688654
  N     0.033344  7.281974  1.250202
  N    -0.871769  4.176616  4.307077
  N    -0.533866  7.850493  5.051823
  S    -1.407760  3.231042  2.994665
  S    -1.409158  7.548050  3.664325
  S     1.711960  3.546458  0.367626
  S     1.643351  7.614031  0.817009
  S     0.693816  4.647084  4.331488
  S     1.063528  8.128129  4.861718
