16  
    
  C    -2.917621  2.345325  1.900258
  C    -2.749070  5.959026  2.018372
  C    -4.053024  1.941041  1.148875
  C    -4.022658  5.503262  1.499680
  N    -1.873602  2.664466  1.139324
  N    -1.723608  5.968145  1.148028
  N    -3.874607  1.742271 -0.176234
  N    -3.938384  5.171763  0.196618
  N    -4.739075  1.837897  3.640782
  N    -4.514007  5.778449  3.931924
  S    -5.410742  1.478316  2.142099
  S    -5.320363  5.189582  2.546477
  S    -2.324160  2.217729 -0.422457
  S    -2.385665  5.559292 -0.290272
  S    -3.135895  2.336375  3.637238
  S    -2.924947  6.190343  3.741827
