16  
    
  C    -1.220948  3.405605  2.137184
  C    -1.114068  7.162413  2.609069
  C    -2.375119  2.754573  1.592723
  C    -2.355553  6.858157  1.982792
  N    -0.315980  3.638989  1.204272
  N    -0.073860  7.202041  1.810855
  N    -2.372112  2.550301  0.284982
  N    -2.287100  6.654116  0.698766
  N    -2.757040  2.916755  4.106614
  N    -2.761902  6.603822  4.476662
  S    -3.573685  2.326631  2.795778
  S    -3.646855  6.689353  3.081645
  S    -0.981398  3.243687 -0.256328
  S    -0.651281  6.919296  0.270409
  S    -1.236348  3.522844  3.835833
  S    -1.180815  6.967695  4.363851
