16  
    
  C     0.586272  3.798635  2.757481
  C     0.643080  7.671775  2.735593
  C    -0.671365  3.286993  2.171761
  C    -0.573392  6.982914  2.181456
  N     1.596018  3.866923  1.886520
  N     1.536331  7.906020  1.771895
  N    -0.633479  3.258245  0.827623
  N    -0.573427  6.691863  0.893686
  N    -0.982771  3.412251  4.745870
  N    -1.019022  7.335197  4.669794
  S    -1.832190  3.220907  3.372038
  S    -1.754404  6.633074  3.369366
  S     0.914111  3.748642  0.381025
  S     0.913505  7.306957  0.378000
  S     0.701741  3.572275  4.498866
  S     0.464168  8.014978  4.432747
