16  
    
  C     1.995226  4.488555  3.359782
  C     1.497827  7.999657  3.017740
  C     0.782321  4.085745  2.704435
  C     0.414317  7.347921  2.312734
  N     2.937126  4.726416  2.448024
  N     2.505963  8.372629  2.232409
  N     0.820158  3.776817  1.427050
  N     0.584728  7.140081  1.006689
  N     0.207124  4.473692  5.153050
  N    -0.295786  7.631949  4.843596
  S    -0.527503  3.940202  3.798043
  S    -0.940434  6.970675  3.446394
  S     2.426134  4.189019  0.917601
  S     2.064994  7.962490  0.714668
  S     1.785362  4.907660  4.994865
  S     1.223795  8.248411  4.734051
