16  
    
  C     3.583760  5.249128  3.559608
  C     3.462604  9.124035  3.537655
  C     2.361046  4.960353  2.898214
  C     2.303711  8.567727  2.922950
  N     4.592798  5.629727  2.769325
  N     4.496563  9.413104  2.750751
  N     2.455659  4.994457  1.559131
  N     2.525452  8.364713  1.615189
  N     1.788159  5.149352  5.500589
  N     1.651135  8.617543  5.363665
  S     1.016099  4.876012  4.067382
  S     0.981670  8.121918  3.867370
  S     4.067673  5.370594  1.221442
  S     3.929726  9.022453  1.269874
  S     3.393351  5.428197  5.307231
  S     3.200352  9.242148  5.284425
