16  
    
  C    -5.804223  0.931654  1.617738
  C    -5.987371  4.720283  1.434494
  C    -6.929666  0.402064  0.899796
  C    -7.191765  4.327083  0.812615
  N    -4.761847  1.086513  0.805645
  N    -4.920766  4.840685  0.632850
  N    -6.765188  0.242339 -0.406569
  N    -7.022942  4.127443 -0.500093
  N    -7.590661  0.699757  3.310108
  N    -7.758408  4.417222  3.303386
  S    -8.288311  0.057171  1.945930
  S    -8.503842  3.985220  1.876076
  S    -5.168921  0.645786 -0.740919
  S    -5.411438  4.427419 -0.907431
  S    -5.945743  1.024789  3.325419
  S    -6.142475  4.705228  3.149642
