16  
    
  C     3.117312  5.125600  3.360691
  C     3.044606  8.904959  3.860274
  C     1.912230  4.682346  2.670917
  C     1.751020  8.465827  3.347606
  N     4.207646  5.087502  2.586763
  N     3.967910  9.157895  2.918235
  N     2.031860  4.524523  1.373565
  N     1.771326  8.258579  1.995475
  N     1.153463  5.042029  5.040990
  N     1.359727  8.957850  5.814138
  S     0.453368  4.657877  3.586806
  S     0.475289  8.723963  4.455355
  S     3.632968  4.866894  1.007282
  S     3.318143  8.627708  1.482285
  S     2.805703  5.258661  5.130003
  S     2.982722  9.361952  5.617240
