16  
    
  C    -5.085459  1.158425  1.799563
  C    -5.041336  4.906281  1.502514
  C    -6.262150  0.643826  1.162481
  C    -6.173336  4.315226  0.815854
  N    -4.073873  1.399592  0.934812
  N    -3.980545  5.071685  0.735869
  N    -6.043411  0.279255 -0.108985
  N    -5.947972  4.091967 -0.469930
  N    -6.908808  0.925304  3.603001
  N    -6.870127  4.594577  3.272769
  S    -7.576129  0.262924  2.289527
  S    -7.472834  3.993847  1.843716
  S    -4.451433  0.668034 -0.491214
  S    -4.340478  4.536598 -0.800896
  S    -5.354085  1.411369  3.468437
  S    -5.316658  5.269546  3.172134
