16  
    
  C     0.569494  3.719631  2.965048
  C     0.600508  7.558036  2.854552
  C    -0.791822  3.574596  2.431637
  C    -0.582142  7.102939  2.061472
  N     1.529677  3.861634  2.039153
  N     1.732641  7.637422  2.185009
  N    -0.780789  3.309205  1.105533
  N    -0.268121  6.875378  0.800552
  N    -1.104432  3.678155  4.954319
  N    -1.352573  7.266443  4.521247
  S    -2.004832  3.289361  3.590800
  S    -2.019140  6.936048  2.981807
  S     0.835020  3.440298  0.557227
  S     1.362806  7.259255  0.640354
  S     0.490751  4.037511  4.670594
  S     0.283193  7.701532  4.549552
