16  
    
  C    -1.917243  2.523204  2.634850
  C    -1.679825  5.956148  2.314877
  C    -3.102557  2.033551  1.915093
  C    -2.985679  5.616163  1.723921
  N    -0.862398  2.694043  1.841986
  N    -0.692964  6.100429  1.455798
  N    -2.900558  1.797096  0.617124
  N    -2.893979  5.519799  0.418506
  N    -3.752039  2.098142  4.417733
  N    -3.480412  5.687415  4.231806
  S    -4.424937  1.713746  2.948502
  S    -4.300682  5.465694  2.822713
  S    -1.305565  2.288791  0.311877
  S    -1.370700  6.008983 -0.109915
  S    -2.134104  2.439031  4.353137
  S    -1.882871  5.826399  4.026311
