16  
    
  C    -5.047910  1.192690  1.739772
  C    -4.899235  4.762979  1.596821
  C    -6.170791  0.464835  1.133843
  C    -6.023803  4.129789  0.931155
  N    -3.915602  1.291311  1.007830
  N    -3.826611  5.034963  0.842605
  N    -5.946996  0.248884 -0.179540
  N    -5.768880  3.925216 -0.375855
  N    -6.852301  0.948418  3.608246
  N    -6.762684  4.636732  3.370866
  S    -7.495378  0.139347  2.210091
  S    -7.449248  3.916607  2.012039
  S    -4.409256  0.747116 -0.496349
  S    -4.307400  4.632011 -0.691543
  S    -5.253000  1.497354  3.448408
  S    -5.239448  5.242945  3.253411
