16  
    
  C    -1.819522  2.372179  2.393537
  C    -1.768278  6.225919  2.260959
  C    -3.018481  1.863588  1.767922
  C    -3.022875  5.758482  1.723961
  N    -0.751596  2.590911  1.626432
  N    -0.786704  6.319647  1.371960
  N    -2.853364  1.739573  0.470352
  N    -2.967469  5.446717  0.450397
  N    -3.664349  2.149608  4.224295
  N    -3.441214  5.747742  4.321382
  S    -4.365216  1.688590  2.811681
  S    -4.301756  5.327245  2.944278
  S    -1.316969  2.233459  0.063298
  S    -1.499653  5.935546 -0.105036
  S    -2.068400  2.595528  4.134268
  S    -1.950650  6.471775  4.030082
