16  
    
  C    -5.447537  1.143756  1.625569
  C    -5.173934  4.810740  1.391760
  C    -6.726037  1.012869  0.959342
  C    -6.421144  4.457746  0.804792
  N    -4.369924  1.130590  0.823907
  N    -4.132232  4.744977  0.559331
  N    -6.614622  0.764795 -0.378775
  N    -6.322883  4.094931 -0.491499
  N    -7.200297  1.056985  3.520371
  N    -6.924810  5.093535  3.279180
  S    -7.972448  0.765389  2.116140
  S    -7.770828  4.440005  1.968023
  S    -4.992179  0.745327 -0.688950
  S    -4.709962  4.196209 -0.891719
  S    -5.587574  1.252933  3.410838
  S    -5.278670  5.065864  3.114398
