16  
    
  C     0.540228  3.714501  3.112820
  C     1.091780  7.525197  2.649188
  C    -0.536830  3.236710  2.236401
  C    -0.047694  6.980774  1.987684
  N     1.591292  4.166997  2.434369
  N     2.085624  7.936757  1.846376
  N    -0.130446  3.009914  0.980418
  N    -0.023829  6.942611  0.637342
  N    -1.361086  3.084768  4.647071
  N    -0.716234  6.943364  4.548727
  S    -1.884062  2.529654  3.125544
  S    -1.407613  6.550691  3.075179
  S     1.319539  3.864231  0.832359
  S     1.497654  7.587416  0.301519
  S     0.092881  3.801171  4.732777
  S     0.839525  7.579239  4.440032
