16  
    
  C    -5.457208  1.218207  1.268542
  C    -5.473674  4.850936  1.617462
  C    -6.557976  0.611067  0.646054
  C    -6.679890  4.401610  0.947757
  N    -4.401910  1.454974  0.466865
  N    -4.457496  4.978457  0.752818
  N    -6.400358  0.527446 -0.674276
  N    -6.568724  4.341535 -0.380228
  N    -7.141005  0.661130  3.109910
  N    -7.281985  4.697019  3.352669
  S    -7.779580  0.090692  1.743598
  S    -7.981643  4.113228  1.960092
  S    -4.886565  1.011325 -1.051937
  S    -4.998813  4.736188 -0.785144
  S    -5.606585  1.169843  2.998584
  S    -5.624377  4.913752  3.342294
