16  
    
  C     2.931090  5.198909  3.581333
  C     2.969428  8.900692  3.468357
  C     1.728866  4.856334  2.833518
  C     1.849392  8.304484  2.780999
  N     3.995201  5.521630  2.843252
  N     4.042705  9.088853  2.658558
  N     1.944042  4.915579  1.525393
  N     2.086848  8.020157  1.517735
  N     1.078838  4.737545  5.409714
  N     1.012363  8.530654  5.092935
  S     0.297142  4.709535  3.961406
  S     0.381598  8.037780  3.682843
  S     3.541820  5.219059  1.235511
  S     3.536244  8.590131  1.105839
  S     2.678270  5.352631  5.309557
  S     2.642713  8.796144  5.220396
