16  
    
  C    -0.342002  3.435227  2.823203
  C    -0.636862  6.911720  2.602438
  C    -1.591653  3.064363  2.165199
  C    -1.803223  6.290373  1.879230
  N     0.672151  3.692320  2.005798
  N     0.422479  7.159432  1.790312
  N    -1.469499  2.875057  0.857939
  N    -1.600592  6.240548  0.548075
  N    -2.126389  3.179365  4.743794
  N    -2.481782  6.680594  4.349077
  S    -2.952038  2.904936  3.271828
  S    -3.131005  6.082322  2.961029
  S     0.120312  3.233635  0.477500
  S    -0.056764  6.667591  0.297437
  S    -0.516556  3.775169  4.505454
  S    -0.885050  7.080195  4.320289
