16  
    
  C    -4.296894  1.577704  1.965804
  C    -4.604110  5.074271  1.667988
  C    -5.532679  1.046400  1.367817
  C    -5.803295  4.572597  1.075441
  N    -3.306246  1.796747  1.095015
  N    -3.625866  5.370869  0.805155
  N    -5.422217  0.773115  0.083759
  N    -5.720730  4.318090 -0.242774
  N    -6.058679  1.256111  3.895564
  N    -6.339004  4.649943  3.692118
  S    -6.834638  0.742427  2.552950
  S    -7.111849  4.312413  2.222808
  S    -3.844894  1.241551 -0.370621
  S    -4.219070  4.824445 -0.687588
  S    -4.578714  1.827856  3.678396
  S    -4.848324  5.363388  3.491549
