16  
    
  C    -2.567239  2.521081  2.375853
  C    -2.712660  5.831111  2.062326
  C    -3.710563  1.863232  1.718615
  C    -3.848955  5.386236  1.317075
  N    -1.677968  2.939718  1.471872
  N    -1.687755  6.138097  1.283548
  N    -3.621897  1.770804  0.410709
  N    -3.776608  5.468257  0.010027
  N    -4.384502  2.020915  4.192468
  N    -4.546058  5.518261  3.767875
  S    -5.060183  1.401717  2.786496
  S    -5.171182  4.939050  2.334812
  S    -2.241940  2.588960 -0.028719
  S    -2.209070  5.817241 -0.303299
  S    -2.830781  2.569391  4.081764
  S    -2.876837  5.874303  3.764606
