16  
    
  C    -5.432869  1.043379  1.287687
  C    -5.362015  4.757633  1.565114
  C    -6.594091  0.587956  0.582231
  C    -6.583063  4.317069  0.874925
  N    -4.456958  1.464233  0.478932
  N    -4.337165  5.160034  0.781313
  N    -6.441000  0.486654 -0.753973
  N    -6.436757  4.295252 -0.456112
  N    -7.179661  0.481931  3.120037
  N    -7.250461  4.508690  3.360587
  S    -7.884138  0.102291  1.633785
  S    -7.949628  4.100194  1.888485
  S    -4.897302  1.085829 -1.064664
  S    -4.909515  4.870733 -0.759539
  S    -5.599137  1.219732  3.042010
  S    -5.689522  5.058488  3.211566
