16  
    
  C     2.133926  4.491055  2.929829
  C     2.147149  8.566253  3.062322
  C     0.963839  3.881100  2.364868
  C     1.042104  7.784063  2.592217
  N     3.236307  4.542988  2.197827
  N     3.118659  8.682318  2.149475
  N     1.116151  3.738430  1.050983
  N     1.158499  7.222748  1.400203
  N     0.408766  4.243484  4.770749
  N     0.283417  8.487203  4.944929
  S    -0.400745  3.885570  3.372568
  S    -0.389942  7.856434  3.552255
  S     2.716331  4.180821  0.654042
  S     2.589971  7.801008  0.848827
  S     1.983396  4.565850  4.643292
  S     1.851300  9.089191  4.773386
