16  
    
  C    -2.573109  2.282407  2.306863
  C    -2.716418  5.829882  2.043492
  C    -3.726407  1.896989  1.597388
  C    -3.921402  5.294431  1.377009
  N    -1.652884  2.784237  1.493879
  N    -1.638070  6.057776  1.296393
  N    -3.619595  1.804667  0.255522
  N    -3.704136  5.218371  0.042705
  N    -4.274151  1.958586  4.089393
  N    -4.487823  5.405814  3.917246
  S    -5.042085  1.584819  2.693706
  S    -5.226399  4.899343  2.545289
  S    -2.107851  2.444231 -0.046467
  S    -2.186949  5.713350 -0.312103
  S    -2.723014  2.429356  4.014900
  S    -2.847269  5.711912  3.763971
