16  
    
  C    -0.781412  3.149598  2.431531
  C    -0.824710  6.311178  2.465016
  C    -1.982992  2.659175  1.823982
  C    -2.034990  5.959536  1.719511
  N     0.195122  3.237867  1.555568
  N     0.260900  6.593725  1.715741
  N    -1.930696  2.395965  0.534816
  N    -1.786893  5.824479  0.432169
  N    -2.437162  2.765924  4.399100
  N    -2.750929  6.415000  4.235932
  S    -3.289158  2.592387  2.989469
  S    -3.494142  5.799377  2.893041
  S    -0.415190  2.868287  0.066587
  S    -0.158506  6.189581  0.137162
  S    -0.830192  3.250487  4.160964
  S    -1.154646  6.633526  4.177992
