16  
    
  C     2.594632  4.970632  3.592192
  C     2.235814  8.854423  3.401388
  C     1.390176  4.372122  3.065819
  C     1.240495  7.974068  2.791923
  N     3.551531  5.292442  2.713695
  N     3.289238  9.108996  2.621784
  N     1.468627  4.089747  1.751432
  N     1.572823  7.481312  1.622532
  N     0.985637  4.899353  5.560068
  N     0.491441  8.218844  5.229286
  S     0.184822  4.210009  4.323890
  S    -0.075957  7.598360  3.821870
  S     2.991379  4.605928  1.275373
  S     2.948754  8.294735  1.180236
  S     2.482650  5.373099  5.277062
  S     1.914659  9.104295  5.090867
