16  
    
  C    -2.591877  2.504817  2.371049
  C    -2.687425  5.833047  2.057542
  C    -3.759101  1.907063  1.727227
  C    -3.824632  5.375688  1.338162
  N    -1.701165  2.978944  1.490740
  N    -1.644399  6.162918  1.286862
  N    -3.622528  1.767083  0.427198
  N    -3.764428  5.515370 -0.019649
  N    -4.371279  2.021206  4.174770
  N    -4.542442  5.504191  3.742739
  S    -5.037850  1.391117  2.797457
  S    -5.201813  4.952064  2.327956
  S    -2.254248  2.577318 -0.020763
  S    -2.216117  5.845487 -0.313738
  S    -2.841383  2.599573  4.090646
  S    -2.887720  5.913295  3.752764
