16  
    
  C    -4.141541  1.314723  1.805905
  C    -4.162808  5.272455  1.930293
  C    -5.377542  1.233141  1.048255
  C    -5.414778  5.051963  1.337758
  N    -3.051268  1.260301  1.049323
  N    -3.095353  5.221638  1.115984
  N    -5.257111  1.145442 -0.255910
  N    -5.357637  4.973086  0.019621
  N    -6.039878  1.524472  3.482112
  N    -5.894739  5.110914  3.839983
  S    -6.832661  1.273946  1.991651
  S    -6.791500  4.926766  2.424363
  S    -3.625460  1.155914 -0.555241
  S    -3.728781  4.921854 -0.340179
  S    -4.328198  1.607458  3.446534
  S    -4.199216  5.288822  3.663176
