16  
    
  C    -0.212920  3.303511  2.613554
  C    -0.074282  6.956459  2.417771
  C    -1.415540  2.704462  2.014886
  C    -1.210788  6.470470  1.710235
  N     0.833574  3.417058  1.803916
  N     0.940413  7.296760  1.645374
  N    -1.269386  2.392116  0.721127
  N    -1.211894  6.553989  0.380679
  N    -1.953572  2.857669  4.536283
  N    -1.916197  6.393313  4.246279
  S    -2.655337  2.235884  3.170634
  S    -2.567750  5.996817  2.767128
  S     0.232941  2.942545  0.290848
  S     0.357017  7.030361  0.015668
  S    -0.408050  3.472965  4.296847
  S    -0.334714  7.005437  4.197689
