16  
    
  C    -0.450346  3.493793  2.917811
  C    -0.971703  6.737390  2.756506
  C    -1.628033  2.826285  2.287393
  C    -2.077472  6.258131  1.887222
  N     0.644008  3.514180  2.173326
  N     0.136899  7.086571  2.123287
  N    -1.444031  2.637702  0.981161
  N    -1.722035  6.153592  0.598010
  N    -2.242916  3.393713  4.681599
  N    -2.972156  6.346487  4.317218
  S    -2.980644  2.799306  3.356390
  S    -3.567454  6.020785  2.756826
  S     0.097792  3.087638  0.622644
  S    -0.153165  6.597662  0.578991
  S    -0.665666  3.751133  4.646654
  S    -1.415028  6.952916  4.367203
