16  
    
  C    -3.656623  2.036725  1.705210
  C    -3.995618  5.294864  1.682836
  C    -4.792076  1.470921  1.126898
  C    -5.113577  4.630014  1.061356
  N    -2.677177  2.279051  0.854073
  N    -2.963985  5.526656  0.877304
  N    -4.741477  1.394910 -0.194627
  N    -5.003931  4.451794 -0.237581
  N    -5.137503  1.206056  3.699632
  N    -5.779959  5.096728  3.526113
  S    -6.028189  1.134236  2.285132
  S    -6.419024  4.378557  2.192174
  S    -3.218513  1.913215 -0.616772
  S    -3.485012  5.017714 -0.646952
  S    -3.733774  2.130694  3.504097
  S    -4.126300  5.486021  3.343396
