16  
    
  C    -3.824124  2.016111  1.926714
  C    -3.519163  5.413982  1.917335
  C    -4.654082  1.021394  1.304111
  C    -4.772756  4.905561  1.379573
  N    -2.782859  2.338315  1.168624
  N    -2.570526  5.540248  0.944534
  N    -4.416328  0.765981  0.011877
  N    -4.785139  4.672824  0.076405
  N    -5.439800  1.332504  3.656894
  N    -5.208683  5.386785  3.898466
  S    -5.988243  0.487265  2.330388
  S    -6.054990  4.958632  2.521974
  S    -3.046697  1.647995 -0.321344
  S    -3.198712  4.976491 -0.431079
  S    -4.187433  2.452804  3.568686
  S    -3.675092  5.787419  3.639844
