16  
    
  C     0.529232  3.968230  2.929938
  C     0.624507  7.545320  2.874595
  C    -0.728058  3.457201  2.369247
  C    -0.490399  7.106080  2.111421
  N     1.525084  3.816204  2.053808
  N     1.723400  7.623129  2.169018
  N    -0.689794  3.084940  1.097968
  N    -0.252848  6.955062  0.826751
  N    -1.127576  3.773393  4.950306
  N    -1.296973  7.221937  4.475322
  S    -1.942587  3.316067  3.566807
  S    -1.943763  6.896354  3.007301
  S     0.865649  3.389470  0.622082
  S     1.366690  7.220738  0.574497
  S     0.472970  4.123915  4.705107
  S     0.268864  7.723106  4.550306
