16  
    
  C     0.952781  4.211252  2.597823
  C     1.138104  7.674182  3.155099
  C    -0.106636  3.339347  2.232093
  C    -0.156421  7.310724  2.531311
  N     2.010635  4.091554  1.736554
  N     2.119953  7.743778  2.266906
  N     0.028808  2.865591  0.986100
  N    -0.140011  7.112212  1.211249
  N    -0.762011  4.328341  4.492787
  N    -0.624095  7.536058  5.044759
  S    -1.483561  3.415673  3.356723
  S    -1.500240  7.207215  3.666819
  S     1.497983  3.375021  0.401297
  S     1.445520  7.359697  0.836074
  S     0.851545  4.770906  4.224521
  S     1.007872  8.028849  4.875867
