16  
    
  C    -4.262490  1.396844  1.791559
  C    -4.101513  5.096720  1.978504
  C    -5.462036  1.266352  1.062586
  C    -5.391160  4.743890  1.388783
  N    -3.112254  1.419365  1.121938
  N    -3.107166  5.028805  1.072034
  N    -5.256646  1.081872 -0.225581
  N    -5.345056  4.468339  0.080686
  N    -6.118736  1.564841  3.625188
  N    -5.874891  5.375953  3.916926
  S    -6.825334  1.234162  2.158128
  S    -6.753451  5.031854  2.530521
  S    -3.597625  1.155702 -0.500991
  S    -3.770488  4.763779 -0.418839
  S    -4.410010  1.482610  3.580065
  S    -4.216749  5.424258  3.729454
