16  
    
  C     0.043951  3.647875  2.622248
  C     0.329090  7.530095  2.660939
  C    -1.002805  2.893218  2.074611
  C    -0.929365  7.287964  1.976210
  N     1.075753  3.822221  1.793789
  N     1.370212  7.650509  1.823070
  N    -0.971883  2.803712  0.730423
  N    -0.795852  7.005261  0.678209
  N    -1.773826  3.380379  4.435555
  N    -1.477075  7.175327  4.554630
  S    -2.369549  2.549375  3.085303
  S    -2.307997  7.064891  3.087586
  S     0.595461  3.188444  0.320963
  S     0.777605  7.351611  0.299944
  S    -0.289016  4.028728  4.277123
  S     0.167677  7.458586  4.426054
