16  
    
  C    -5.290040  0.996181  1.760939
  C    -5.180904  4.803694  1.308794
  C    -6.479936  0.461043  1.153172
  C    -6.382311  4.341437  0.637393
  N    -4.201621  1.181964  0.983139
  N    -4.056890  4.884139  0.590783
  N    -6.435520  0.387422 -0.198049
  N    -6.181741  4.116315 -0.674315
  N    -7.141706  1.050044  3.639500
  N    -7.000659  4.856042  3.143229
  S    -7.881507  0.575345  2.230882
  S    -7.768672  4.396082  1.748182
  S    -4.808814  0.827079 -0.575372
  S    -4.572414  4.464754 -0.929937
  S    -5.508472  1.332804  3.456898
  S    -5.391880  5.278881  3.000076
