16  
    
  C    -5.429182  1.204835  1.629968
  C    -5.179772  4.818499  1.383136
  C    -6.716652  0.892135  0.959127
  C    -6.452953  4.422480  0.822647
  N    -4.400229  1.064447  0.812431
  N    -4.120156  4.721847  0.590092
  N    -6.663337  0.731342 -0.350163
  N    -6.363520  4.083533 -0.462485
  N    -7.185019  1.087063  3.481660
  N    -6.888909  4.864887  3.383977
  S    -8.036082  0.835947  2.062564
  S    -7.758029  4.418203  2.055133
  S    -4.993413  0.822150 -0.727057
  S    -4.740286  4.144276 -0.852686
  S    -5.526624  1.265626  3.378622
  S    -5.251319  5.067652  3.103778
