16  
    
  C    -3.354648  1.517388  2.044782
  C    -3.140754  5.419742  2.067304
  C    -4.670780  1.333681  1.488407
  C    -4.307456  4.940961  1.356523
  N    -2.339321  1.736502  1.211177
  N    -2.120749  5.560845  1.246852
  N    -4.642613  1.143281  0.171101
  N    -4.210271  4.770359  0.058029
  N    -5.028801  1.633233  3.999199
  N    -4.892453  5.085821  3.943635
  S    -5.896236  1.119383  2.661632
  S    -5.699812  4.868628  2.453278
  S    -3.106045  1.437906 -0.282820
  S    -2.567270  5.156799 -0.275313
  S    -3.355964  1.749787  3.775693
  S    -3.340084  5.768848  3.835482
