16  
    
  C    -2.459711  2.494408  1.984489
  C    -2.436121  6.240410  2.118128
  C    -3.676445  1.990718  1.412294
  C    -3.534337  5.665533  1.439494
  N    -1.461139  2.499972  1.123628
  N    -1.323838  6.461235  1.350872
  N    -3.693215  1.886774  0.068930
  N    -3.262690  5.218213  0.178817
  N    -4.108464  2.429262  3.982728
  N    -4.209448  5.817524  3.959762
  S    -4.960550  2.010913  2.605161
  S    -4.945836  5.411299  2.506491
  S    -2.107500  2.184709 -0.401042
  S    -1.722168  5.660874 -0.073437
  S    -2.516465  2.942708  3.662536
  S    -2.628226  6.336273  3.818120
