16  
    
  C    -0.753516  2.923251  2.518525
  C    -1.109416  6.474178  2.472571
  C    -2.031736  2.692167  1.834078
  C    -2.259532  5.915144  1.833588
  N     0.301301  2.984010  1.695949
  N    -0.032052  6.690624  1.704014
  N    -1.870838  2.379030  0.526134
  N    -2.100984  5.848412  0.522780
  N    -2.484482  2.760751  4.409856
  N    -2.944184  6.081687  4.323786
  S    -3.295911  2.413845  2.988204
  S    -3.644765  5.610931  2.879245
  S    -0.274751  2.763665  0.158254
  S    -0.504681  6.243831  0.159829
  S    -0.879515  3.275523  4.163021
  S    -1.347021  6.584576  4.235141
