16  
    
  C    -0.333310  3.482036  2.816393
  C    -0.616920  6.897582  2.529371
  C    -1.559299  2.982244  2.163448
  C    -1.745175  6.358926  1.843487
  N     0.686861  3.624195  1.967690
  N     0.444520  7.142957  1.776964
  N    -1.500987  2.990352  0.810428
  N    -1.597295  6.193357  0.515232
  N    -2.109825  3.198607  4.681546
  N    -2.441399  6.703775  4.394437
  S    -2.935566  2.902070  3.281603
  S    -3.107352  6.097761  3.024261
  S     0.084232  3.225326  0.437020
  S    -0.025851  6.705541  0.206426
  S    -0.528566  3.761074  4.482089
  S    -0.816800  7.088259  4.299709
