16  
    
  C    -4.137512  1.449472  1.913872
  C    -3.943781  5.210869  1.949627
  C    -5.454795  1.178241  1.325178
  C    -5.139651  4.708795  1.385978
  N    -3.106199  1.479078  1.091857
  N    -2.869908  5.137120  1.166293
  N    -5.326638  0.940339  0.037412
  N    -5.097219  4.327324  0.121225
  N    -5.828482  1.402642  3.849928
  N    -5.652690  5.367599  3.808946
  S    -6.710611  0.992901  2.466238
  S    -6.455177  4.719278  2.522896
  S    -3.813083  1.114779 -0.391866
  S    -3.481941  4.455114 -0.239936
  S    -4.219429  1.772265  3.585754
  S    -4.092808  5.730841  3.589180
