16  
    
  C    -3.696373  1.787295  1.817346
  C    -3.951419  5.437513  1.861676
  C    -4.988402  1.379422  1.205685
  C    -5.083772  5.017231  1.068355
  N    -2.709621  1.882093  0.904327
  N    -2.905116  5.742297  1.092951
  N    -4.938401  1.369695 -0.116668
  N    -4.907478  5.150642 -0.249531
  N    -5.508578  1.613196  3.749115
  N    -5.736502  4.595869  3.562815
  S    -6.307058  1.133261  2.356021
  S    -6.503582  4.593612  2.035599
  S    -3.330025  1.667730 -0.616320
  S    -3.323941  5.591387 -0.498966
  S    -3.850931  1.746727  3.575928
  S    -4.263667  5.391805  3.575760
