16  
    
  C     2.522846  4.676035  3.522566
  C     2.519864  8.768420  3.425890
  C     1.347367  4.285987  2.779538
  C     1.274874  8.251945  2.933810
  N     3.517377  5.022940  2.723901
  N     3.441284  8.878679  2.518345
  N     1.504571  4.298550  1.465524
  N     1.317616  7.891192  1.673425
  N     0.565307  4.411174  5.149465
  N     1.024037  8.417457  5.480432
  S    -0.050624  3.931285  3.751160
  S     0.053095  8.060580  4.135383
  S     3.064696  4.760974  1.098064
  S     2.793598  8.385793  1.060895
  S     2.107926  4.937480  5.237572
  S     2.579546  8.850222  5.204918
