16  
    
  C    -2.667651  2.237812  2.035665
  C    -2.578930  5.812801  2.068794
  C    -3.900645  1.873018  1.299674
  C    -3.811472  5.411260  1.420801
  N    -1.641823  2.234722  1.197843
  N    -1.451322  5.827656  1.394429
  N    -3.813626  1.914447 -0.020171
  N    -3.536925  5.033919  0.176148
  N    -4.528235  1.919888  3.829224
  N    -4.458444  5.746657  3.873029
  S    -5.281786  1.814802  2.318652
  S    -5.225253  5.289201  2.418559
  S    -2.179664  2.108549 -0.368600
  S    -2.008412  5.403492 -0.187502
  S    -2.923194  2.454800  3.746410
  S    -2.825331  6.190586  3.731216
