16  
    
  C     0.967886  4.136332  2.675234
  C     1.577203  8.702852  3.053212
  C    -0.154061  3.540468  1.918271
  C     0.362673  8.193366  2.443475
  N     2.052673  4.429616  1.966750
  N     2.593518  8.861277  2.221555
  N     0.064402  3.576375  0.591474
  N     0.475675  8.059455  1.118446
  N    -0.949129  3.853698  4.423103
  N    -0.148846  8.342496  4.908582
  S    -1.508976  3.167056  2.946138
  S    -0.947908  8.006739  3.481977
  S     1.631275  4.084247  0.375982
  S     1.977446  8.421869  0.681150
  S     0.642971  4.407052  4.419770
  S     1.472308  8.831421  4.786753
