16  
    
  C     2.945102  5.316580  3.938650
  C     2.571028  8.691068  3.173550
  C     1.698118  4.948617  3.317667
  C     1.334370  8.253284  2.577664
  N     3.969511  5.329906  3.106007
  N     3.544522  8.691738  2.225143
  N     1.799200  4.649062  2.034508
  N     1.338218  7.822742  1.305468
  N     1.200116  5.836783  5.699225
  N     0.856991  8.389864  5.081095
  S     0.395780  5.025514  4.478548
  S     0.033329  8.173192  3.714525
  S     3.419427  4.862614  1.687242
  S     2.891122  8.110246  0.823097
  S     2.829691  5.918682  5.543036
  S     2.432251  8.820704  4.905427
