16  
    
  C    -5.357718  1.180857  1.304431
  C    -5.481076  4.824369  1.568792
  C    -6.567880  0.679567  0.655095
  C    -6.710962  4.481729  0.910249
  N    -4.388168  1.462685  0.464761
  N    -4.459564  4.948471  0.760601
  N    -6.393879  0.454347 -0.637899
  N    -6.631830  4.322576 -0.397123
  N    -7.172258  0.783762  3.158277
  N    -7.249492  4.665202  3.462952
  S    -7.799979  0.073657  1.773511
  S    -8.018138  4.129915  2.050862
  S    -4.875065  0.994192 -1.032056
  S    -5.029372  4.651438 -0.794440
  S    -5.551341  1.192755  2.996938
  S    -5.608192  4.870883  3.371944
