16  
    
  C    -4.682265  1.078571  1.457959
  C    -4.795372  4.692901  1.698988
  C    -5.923473  0.965011  0.729554
  C    -6.044305  4.504606  1.018775
  N    -3.594332  1.153779  0.657187
  N    -3.743547  4.813681  0.865607
  N    -5.736056  0.759245 -0.579971
  N    -5.953167  4.381166 -0.305325
  N    -6.429052  0.742051  3.316404
  N    -6.603720  4.137676  3.551837
  S    -7.212903  0.673389  1.863545
  S    -7.400926  4.183259  2.088620
  S    -4.169130  0.914523 -0.868267
  S    -4.341619  4.544311 -0.676879
  S    -4.811517  0.920076  3.245252
  S    -5.036776  4.628856  3.405745
