16  
    
  C    -2.563890  2.364310  2.232570
  C    -2.698463  5.702876  2.057941
  C    -3.781572  1.887514  1.570043
  C    -3.870654  5.205535  1.434941
  N    -1.549767  2.682605  1.440894
  N    -1.682109  6.061455  1.247350
  N    -3.624565  1.834613  0.265888
  N    -3.744964  5.212159  0.129848
  N    -4.255471  1.889966  4.096546
  N    -4.422862  5.331750  3.955033
  S    -5.067405  1.652981  2.659889
  S    -5.254252  4.918738  2.526583
  S    -2.050239  2.344343 -0.059273
  S    -2.184216  5.685729 -0.284006
  S    -2.660594  2.404106  3.972638
  S    -2.811829  5.718321  3.768964
