16  
    
  C     0.436174  3.771866  3.024429
  C     1.071315  7.485482  2.643256
  C    -0.510423  3.107014  2.184544
  C    -0.110798  6.994430  1.968037
  N     1.565802  4.159233  2.461852
  N     2.043940  7.961767  1.855105
  N    -0.170151  2.988215  0.901135
  N    -0.026877  6.961083  0.650744
  N    -1.431473  3.092603  4.567844
  N    -0.719731  6.924028  4.517738
  S    -1.851632  2.523959  3.095720
  S    -1.377067  6.545759  3.078301
  S     1.316572  3.827754  0.813291
  S     1.428305  7.658523  0.266353
  S     0.102495  3.819144  4.741040
  S     0.823239  7.540989  4.439752
