16  
    
  C    -4.144972  1.266139  1.744637
  C    -4.137083  5.271162  1.967334
  C    -5.416821  1.263550  1.012198
  C    -5.453583  5.201461  1.262205
  N    -3.070379  1.243616  0.937591
  N    -3.094340  5.202465  1.167416
  N    -5.244498  1.127064 -0.300912
  N    -5.296648  5.030253 -0.060561
  N    -5.953987  1.523391  3.473383
  N    -5.852204  4.966346  3.832671
  S    -6.755558  1.297104  2.019951
  S    -6.773967  4.908094  2.440597
  S    -3.588372  1.151214 -0.577701
  S    -3.661456  5.058937 -0.422775
  S    -4.328123  1.662944  3.447184
  S    -4.249860  5.275454  3.682440
