16  
    
  C    -4.417572  1.318454  1.987921
  C    -4.595074  4.849329  1.702983
  C    -5.611398  0.816230  1.319610
  C    -5.661152  4.341265  0.952707
  N    -3.579268  1.789737  1.087144
  N    -3.554867  5.229754  1.015450
  N    -5.578593  0.699270  0.012657
  N    -5.481089  4.323785 -0.333303
  N    -5.949832  0.863519  3.805511
  N    -6.406297  4.054798  3.304903
  S    -6.770038  0.378761  2.492684
  S    -7.016102  3.785636  1.810718
  S    -4.140382  1.443587 -0.418294
  S    -4.002674  5.056266 -0.584967
  S    -4.406412  1.470715  3.663169
  S    -4.925473  4.788879  3.360940
