16  
    
  C     3.057212  5.025931  3.371295
  C     3.083166  9.031055  3.782395
  C     1.866183  4.673343  2.667091
  C     1.750535  8.706331  3.275262
  N     4.157633  5.045675  2.627648
  N     4.007203  8.926093  2.855593
  N     1.987646  4.617316  1.352747
  N     1.687157  8.256755  1.999410
  N     1.271948  5.000678  5.192562
  N     1.521106  9.305553  5.768044
  S     0.472460  4.631669  3.811700
  S     0.529214  8.764105  4.595843
  S     3.682793  4.868117  1.053603
  S     3.300344  8.320770  1.478955
  S     2.894566  5.259048  5.098960
  S     3.129845  9.323636  5.463461
