16  
    
  C    -4.419006  1.464190  1.934761
  C    -4.659982  4.777300  1.631652
  C    -5.581374  0.791481  1.335553
  C    -5.744620  4.351482  0.791307
  N    -3.472746  1.817479  1.043531
  N    -3.595971  5.237819  0.997649
  N    -5.589382  0.767568  0.010950
  N    -5.495212  4.463464 -0.528487
  N    -6.066687  0.858891  3.878116
  N    -6.398157  3.869345  3.321254
  S    -6.827720  0.253095  2.453522
  S    -7.126700  3.752668  1.789436
  S    -4.054734  1.386323 -0.446650
  S    -3.946960  5.041436 -0.581960
  S    -4.455986  1.279336  3.624795
  S    -4.912294  4.700630  3.393802
