16  
    
  C     2.597316  4.962640  3.591343
  C     2.241218  8.853901  3.396696
  C     1.382829  4.388221  3.063811
  C     1.242354  7.975557  2.789492
  N     3.557135  5.293459  2.711716
  N     3.293894  9.113817  2.616461
  N     1.471641  4.094610  1.751072
  N     1.576247  7.483718  1.626957
  N     0.989824  4.906433  5.566162
  N     0.488975  8.212827  5.234719
  S     0.188987  4.206888  4.331395
  S    -0.075435  7.598300  3.812538
  S     2.995359  4.603259  1.279521
  S     2.945532  8.292799  1.184340
  S     2.483607  5.378383  5.278324
  S     1.908785  9.101908  5.093384
