16  
    
  C    -5.523539  0.933570  1.441878
  C    -5.270190  5.024453  1.226888
  C    -6.699906  0.426086  0.772523
  C    -6.426580  4.405784  0.699254
  N    -4.567310  1.125882  0.547687
  N    -4.398698  5.321694  0.301875
  N    -6.567679  0.242581 -0.510965
  N    -6.343834  4.107355 -0.572426
  N    -7.299728  0.775777  3.290948
  N    -6.708667  4.383905  3.297649
  S    -8.027643  0.168287  1.878164
  S    -7.542916  3.876140  1.971219
  S    -5.050133  0.688823 -0.938005
  S    -4.869774  4.707266 -1.179409
  S    -5.680095  1.055191  3.164881
  S    -5.235624  5.077012  3.017123
