16  
    
  C    -0.323272  3.300000  2.771498
  C    -0.308134  7.072923  2.503292
  C    -1.477817  2.720246  2.090970
  C    -1.454480  6.322493  1.966145
  N     0.700268  3.478131  1.918606
  N     0.651654  7.161251  1.582026
  N    -1.248297  2.347931  0.833795
  N    -1.339989  6.017482  0.668554
  N    -2.259052  3.050319  4.509727
  N    -2.130518  6.997620  4.365566
  S    -2.821238  2.313405  3.100096
  S    -2.757406  6.121884  3.097848
  S     0.261041  2.896965  0.446740
  S     0.217412  6.396686  0.214312
  S    -0.728679  3.675363  4.369751
  S    -0.551102  7.505153  4.188347
