16  
    
  C    -3.534132  1.902632  1.557156
  C    -3.884718  5.289424  1.594723
  C    -4.700280  1.367456  0.993008
  C    -5.114862  4.715277  1.087510
  N    -2.507207  2.155938  0.751155
  N    -2.887950  5.440148  0.706334
  N    -4.602587  1.165369 -0.325489
  N    -5.105839  4.596458 -0.233154
  N    -5.224103  1.568257  3.614341
  N    -5.571897  5.046946  3.630454
  S    -5.889046  0.967182  2.205713
  S    -6.419648  4.464421  2.250708
  S    -3.093792  1.711766 -0.778935
  S    -3.586826  4.890916 -0.748012
  S    -3.659591  2.136454  3.335873
  S    -4.043797  5.571443  3.305472
