16  
    
  C    -5.439152  1.090504  1.297088
  C    -5.407038  4.918928  1.523416
  C    -6.545040  0.457576  0.606416
  C    -6.505354  4.286369  0.785535
  N    -4.381409  1.415378  0.544096
  N    -4.354043  5.234548  0.750457
  N    -6.417435  0.450610 -0.731129
  N    -6.274684  4.244758 -0.550470
  N    -7.148794  0.475784  3.069175
  N    -7.108117  4.269457  3.313262
  S    -7.943842  0.136786  1.647977
  S    -7.887195  4.067463  1.876016
  S    -4.940981  1.151225 -1.048826
  S    -4.771210  4.923793 -0.828624
  S    -5.707848  1.171372  2.969891
  S    -5.688706  5.190703  3.232611
