16  
    
  C    -5.210929  1.018334  1.804137
  C    -5.197250  4.999481  1.347715
  C    -6.433441  0.579281  1.201845
  C    -6.365586  4.501382  0.663245
  N    -4.212506  1.255245  0.942614
  N    -4.120922  4.945700  0.595886
  N    -6.222151  0.277528 -0.097124
  N    -6.124348  4.168016 -0.600431
  N    -7.057398  1.039311  3.557062
  N    -6.940441  4.695809  3.134940
  S    -7.861440  0.485092  2.230068
  S    -7.713194  4.259036  1.701585
  S    -4.766252  0.785303 -0.524532
  S    -4.485002  4.435407 -0.924121
  S    -5.436254  1.342398  3.493365
  S    -5.389983  5.280834  2.998051
