16  
    
  C    -1.942451  2.486984  2.624339
  C    -1.699103  5.822305  2.331185
  C    -3.094531  1.965711  1.945093
  C    -2.964153  5.661555  1.625497
  N    -0.865161  2.735381  1.857726
  N    -0.677336  6.114115  1.492705
  N    -2.873701  1.799882  0.638532
  N    -2.908310  5.690107  0.274285
  N    -3.727160  2.093093  4.400185
  N    -3.536928  5.664267  4.169943
  S    -4.474800  1.828943  2.927591
  S    -4.284788  5.416019  2.699928
  S    -1.374119  2.358148  0.304317
  S    -1.298419  5.895744 -0.003353
  S    -2.100195  2.400107  4.388253
  S    -1.844516  5.794817  4.081769
