16  
    
  C    -4.868069  1.226420  1.557993
  C    -4.726019  4.869475  1.889720
  C    -6.005687  0.669519  0.818887
  C    -5.892519  4.296744  1.253839
  N    -3.803068  1.446167  0.763539
  N    -3.643463  5.049930  1.104481
  N    -5.798307  0.305416 -0.447589
  N    -5.662081  3.883142  0.008071
  N    -6.577105  0.775171  3.373253
  N    -6.419592  4.362492  3.811670
  S    -7.246154  0.242825  1.937198
  S    -7.216505  3.945526  2.419595
  S    -4.241746  0.863447 -0.736956
  S    -4.127753  4.336986 -0.319614
  S    -5.001501  1.312858  3.281206
  S    -4.910725  5.045266  3.601005
