16  
    
  C    -4.142735  1.409599  1.935440
  C    -3.914063  5.215856  1.962149
  C    -5.421528  1.167453  1.283300
  C    -5.236657  4.865740  1.386257
  N    -3.127030  1.415435  1.095180
  N    -2.912967  5.005976  1.077554
  N    -5.399518  0.981099 -0.030813
  N    -5.098787  4.360378  0.156604
  N    -5.891495  1.366869  3.803437
  N    -5.733455  5.346630  3.889578
  S    -6.737485  1.044894  2.455434
  S    -6.527130  4.756234  2.575053
  S    -3.719602  1.160403 -0.469416
  S    -3.510911  4.414950 -0.328921
  S    -4.279297  1.725289  3.672729
  S    -4.123949  5.722894  3.656582
