16  
    
  C     2.138917  4.804212  3.184708
  C     1.995404  8.931943  3.400975
  C     0.904289  4.538155  2.500634
  C     0.808155  8.473125  2.719218
  N     3.045295  5.237222  2.329815
  N     3.043994  9.113735  2.570432
  N     0.990679  4.414130  1.177982
  N     1.000852  8.180636  1.409559
  N     0.416739  4.360947  5.026555
  N     0.245658  8.567646  5.285945
  S    -0.366705  4.086308  3.547473
  S    -0.534082  8.237060  3.811730
  S     2.532778  4.906358  0.797758
  S     2.556186  8.609429  1.097201
  S     2.082057  4.694520  4.921480
  S     1.869375  8.942014  5.118642
