16  
    
  C    -1.745023  2.401173  2.051314
  C    -1.907304  6.507286  2.120236
  C    -3.025798  2.138599  1.435715
  C    -2.852554  5.549599  1.644621
  N    -0.774762  2.610993  1.148180
  N    -0.892240  6.739208  1.255737
  N    -2.993561  1.912346  0.105490
  N    -2.666755  5.122959  0.374856
  N    -3.427034  2.085527  3.988670
  N    -3.587914  6.170097  4.119724
  S    -4.341462  1.871624  2.622838
  S    -4.253000  5.377328  2.813238
  S    -1.416646  2.131633 -0.351305
  S    -1.317797  5.911248 -0.128576
  S    -1.831209  2.601799  3.730446
  S    -2.142882  6.963257  3.888400
