16  
    
  C    -4.230221  1.578227  1.851095
  C    -4.166400  5.302961  1.723278
  C    -5.408584  0.917272  1.340242
  C    -5.337690  4.678567  1.242294
  N    -3.210336  1.655240  1.005526
  N    -3.119764  5.303935  0.919100
  N    -5.307560  0.542902  0.082078
  N    -5.213035  4.288062 -0.026719
  N    -6.013848  1.668345  3.786460
  N    -5.818785  5.138283  3.702670
  S    -6.735662  0.937148  2.431730
  S    -6.695491  4.570057  2.388013
  S    -3.704479  1.038853 -0.410780
  S    -3.685081  4.652611 -0.514370
  S    -4.357886  2.177113  3.554349
  S    -4.219574  5.639130  3.471518
