16  
    
  C     0.613060  3.529000  2.781820
  C     0.710051  7.668902  2.634905
  C    -0.707278  3.384174  2.103545
  C    -0.492107  7.058099  2.009689
  N     1.627707  3.658254  1.915903
  N     1.681258  8.069596  1.836812
  N    -0.654792  3.249622  0.787202
  N    -0.472194  7.082831  0.677334
  N    -1.217545  3.265490  4.597268
  N    -0.903509  6.965306  4.593582
  S    -1.955701  2.869067  3.189506
  S    -1.727913  6.635105  3.158945
  S     0.958558  3.645733  0.356619
  S     1.032486  7.711553  0.332801
  S     0.460903  3.575424  4.477242
  S     0.601293  7.688484  4.371258
