16  
    
  C     0.527691  3.587044  2.955950
  C     0.457482  7.578869  2.845593
  C    -0.838530  3.664541  2.424850
  C    -0.764453  7.190046  2.202981
  N     1.443712  3.995705  2.086280
  N     1.582650  7.569269  2.102808
  N    -0.866340  3.702676  1.083039
  N    -0.628125  6.998365  0.873939
  N    -1.153033  3.270822  4.932941
  N    -1.340146  7.431507  4.768933
  S    -2.075712  3.314146  3.561974
  S    -2.118511  7.078496  3.372044
  S     0.715348  3.887229  0.581928
  S     0.980178  7.196542  0.616146
  S     0.524390  3.366679  4.648148
  S     0.284540  7.837973  4.583128
