16  
    
  C     0.581094  3.582726  2.736396
  C     0.630019  7.635896  2.699173
  C    -0.677013  3.275534  2.079957
  C    -0.567588  7.068963  2.046803
  N     1.557837  3.705011  1.827730
  N     1.506435  7.994348  1.803734
  N    -0.679302  3.419842  0.740786
  N    -0.407601  6.927543  0.732057
  N    -1.051899  3.245222  4.673765
  N    -0.976045  7.166463  4.634388
  S    -1.884315  2.991962  3.229058
  S    -1.755708  6.654994  3.272043
  S     0.876696  3.642779  0.364875
  S     1.051861  7.656358  0.275888
  S     0.543713  3.516265  4.494617
  S     0.551773  7.745723  4.399249
