16  
    
  C     1.932403  4.263726  3.079033
  C     1.987658  7.989402  3.113657
  C     0.645559  4.091088  2.457476
  C     0.789320  7.616498  2.421033
  N     2.946914  4.188876  2.228593
  N     3.049347  8.188908  2.321616
  N     0.680036  3.831040  1.166024
  N     0.878601  7.486776  1.111913
  N     0.215022  4.259346  5.087864
  N     0.176351  7.539596  4.944055
  S    -0.688844  3.981145  3.648358
  S    -0.538101  7.238274  3.464373
  S     2.286061  3.970232  0.743261
  S     2.481599  7.867709  0.751059
  S     1.872954  4.587140  4.813967
  S     1.769415  8.028904  4.875358
