16  
    
  C     1.914593  4.610014  3.280347
  C     1.473051  8.026466  3.020525
  C     0.767507  4.021655  2.710063
  C     0.389868  7.292295  2.322950
  N     2.917913  4.658762  2.433965
  N     2.454953  8.483496  2.225093
  N     0.834167  3.723858  1.428579
  N     0.593842  7.104807  0.988413
  N     0.122640  4.504356  5.194165
  N    -0.304804  7.620314  4.859206
  S    -0.550948  4.027931  3.782463
  S    -0.925648  6.966068  3.435110
  S     2.373140  4.171445  0.975443
  S     2.030506  7.956378  0.725956
  S     1.791282  4.887337  5.023834
  S     1.227439  8.265001  4.734082
