16  
    
  C    -1.178770  2.970423  2.262954
  C    -0.960728  6.936440  2.436432
  C    -2.527312  2.808804  1.712100
  C    -2.239463  6.646411  1.862727
  N    -0.162454  3.015130  1.387371
  N    -0.024320  7.079584  1.488101
  N    -2.516255  2.784992  0.376848
  N    -2.242778  6.430849  0.547920
  N    -2.887096  3.139827  4.265906
  N    -2.604956  6.721124  4.423690
  S    -3.739209  2.741478  2.868036
  S    -3.508817  6.560582  3.003280
  S    -0.926670  2.884317 -0.103744
  S    -0.710629  6.875314  0.000908
  S    -1.217220  3.300736  3.990077
  S    -0.994146  7.001285  4.202153
