16  
    
  C    -2.272592  2.525597  1.946620
  C    -2.174039  5.843059  2.209104
  C    -3.485620  2.079881  1.370815
  C    -3.379837  5.419473  1.589013
  N    -1.272997  2.566069  1.052105
  N    -1.149514  6.113209  1.332767
  N    -3.485361  1.743083  0.075860
  N    -3.319869  5.340024  0.254741
  N    -3.909718  2.383275  3.950657
  N    -4.085440  5.931175  4.033508
  S    -4.765420  1.996859  2.548860
  S    -4.830550  5.427022  2.613426
  S    -1.932173  2.065346 -0.421159
  S    -1.732515  5.691316 -0.159002
  S    -2.282527  2.707728  3.687751
  S    -2.425956  6.155837  3.957594
