16  
    
  C     3.158546  5.262028  3.405799
  C     3.358537  9.208459  3.781478
  C     1.994285  4.663337  2.740543
  C     2.231961  8.843028  2.953144
  N     4.263104  5.192037  2.683583
  N     4.393271  9.419872  3.006862
  N     2.148779  4.475282  1.417157
  N     2.379593  8.699395  1.655046
  N     1.365697  4.870845  5.253157
  N     1.402936  8.740878  5.338123
  S     0.646611  4.453723  3.825494
  S     0.761147  8.696742  3.890257
  S     3.760656  4.817881  1.091597
  S     3.974002  8.921645  1.454340
  S     2.943373  5.269325  5.090027
  S     2.947635  9.281493  5.496641
