16  
    
  C    -2.048302  2.371093  1.973193
  C    -2.105588  5.764257  2.188430
  C    -3.322827  1.981921  1.395899
  C    -3.355883  5.555429  1.587290
  N    -1.005244  2.461611  1.124806
  N    -1.053632  5.815624  1.355011
  N    -3.212413  1.744457  0.094072
  N    -3.311524  5.562623  0.247879
  N    -3.820478  2.368791  3.885456
  N    -3.793420  5.806220  4.084240
  S    -4.630357  1.874271  2.493825
  S    -4.726078  5.441012  2.689200
  S    -1.676384  2.106332 -0.349193
  S    -1.651658  5.727098 -0.156972
  S    -2.166449  2.518354  3.685662
  S    -2.155814  6.120728  3.863801
