16  
    
  C     2.875538  5.266751  3.242159
  C     2.870200  9.107908  3.457229
  C     1.746537  4.570882  2.725007
  C     1.737618  8.473865  2.818754
  N     3.821784  5.538164  2.371044
  N     3.849251  9.502190  2.580487
  N     1.829495  4.316906  1.444563
  N     1.873519  8.311762  1.504021
  N     1.377940  4.623203  5.176310
  N     1.112327  8.444781  5.267117
  S     0.498642  4.183191  3.856273
  S     0.555109  7.841816  3.804742
  S     3.253316  4.933177  0.912552
  S     3.373393  8.937117  1.062394
  S     2.787746  5.523464  4.985663
  S     2.677145  9.133779  5.208990
