16  
    
  C     0.168585  3.388601  2.441336
  C     0.041601  7.212737  2.805942
  C    -1.025287  2.847232  1.695653
  C    -1.155295  6.865193  2.113962
  N     1.152652  3.607251  1.613568
  N     1.082806  7.411518  2.013627
  N    -0.998427  2.992861  0.378701
  N    -1.008826  6.706752  0.781191
  N    -1.642324  2.858433  4.261770
  N    -1.787888  6.958288  4.650024
  S    -2.329108  2.529609  2.760101
  S    -2.468035  6.467860  3.236796
  S     0.597711  3.357641  0.022982
  S     0.616078  7.055810  0.398056
  S    -0.038379  3.482817  4.178365
  S    -0.210019  7.412476  4.505494
