16  
    
  C    -3.583737  2.056972  1.632980
  C    -3.951294  5.244427  1.650850
  C    -4.762341  1.472732  1.093847
  C    -5.188574  4.716756  1.054361
  N    -2.562066  2.268301  0.805823
  N    -2.996859  5.400471  0.746569
  N    -4.701407  1.333039 -0.219706
  N    -5.080123  4.422586 -0.245817
  N    -5.134168  1.444112  3.545366
  N    -5.624156  5.015151  3.561110
  S    -5.982016  0.985401  2.197404
  S    -6.419975  4.423862  2.252970
  S    -3.159919  1.776825 -0.676786
  S    -3.529520  4.918501 -0.720542
  S    -3.656474  2.147890  3.384077
  S    -4.059171  5.567883  3.338007
