16  
    
  C     2.919805  5.214040  3.694423
  C     2.881087  8.778875  3.258297
  C     1.589287  5.237457  3.095385
  C     1.586568  8.392596  2.729807
  N     3.921824  4.944373  2.862167
  N     3.826935  8.822647  2.312187
  N     1.595140  4.736336  1.839507
  N     1.590941  8.011098  1.476167
  N     1.363441  5.484048  5.664759
  N     1.034286  8.869470  5.216499
  S     0.375442  5.391302  4.364760
  S     0.273537  8.469164  3.754360
  S     3.177242  4.662981  1.372256
  S     3.097432  8.101086  0.959558
  S     2.983267  5.471256  5.407941
  S     2.742434  9.090450  5.043889
