16  
    
  C    -0.457868  3.482045  2.916518
  C    -0.978642  6.751302  2.763299
  C    -1.626179  2.833628  2.280407
  C    -2.085507  6.249878  1.887845
  N     0.637101  3.486557  2.185196
  N     0.132565  7.076876  2.125732
  N    -1.455482  2.627219  0.971085
  N    -1.724994  6.153173  0.605376
  N    -2.249259  3.400688  4.689070
  N    -2.973159  6.338622  4.308547
  S    -2.983403  2.791106  3.358794
  S    -3.582235  6.015324  2.745984
  S     0.094673  3.085468  0.623361
  S    -0.171030  6.597844  0.589235
  S    -0.668807  3.753013  4.639527
  S    -1.420391  6.944113  4.361829
