16  
    
  C    -1.024829  3.119580  2.450989
  C    -0.630571  6.486167  2.347892
  C    -2.299893  2.725589  1.796228
  C    -1.893696  6.268261  1.687373
  N     0.058060  3.067764  1.677741
  N     0.370354  6.618783  1.553356
  N    -2.149443  2.666313  0.466953
  N    -1.793390  6.081353  0.392937
  N    -2.841248  3.220976  4.296035
  N    -2.343211  6.556621  4.136892
  S    -3.641829  2.883916  2.874313
  S    -3.179465  6.174120  2.774577
  S    -0.514144  2.697122  0.160322
  S    -0.167828  6.518949  0.034114
  S    -1.191716  3.375639  4.158453
  S    -0.728796  6.817381  4.019902
