16  
    
  C    -2.634957  2.142007  2.023420
  C    -2.568458  5.843797  2.122609
  C    -3.857637  1.870594  1.338891
  C    -3.735483  5.386045  1.411277
  N    -1.576486  2.194547  1.223224
  N    -1.436930  5.814650  1.376185
  N    -3.778936  1.825087 -0.000377
  N    -3.559132  5.038664  0.120649
  N    -4.483281  1.959856  3.809173
  N    -4.438507  5.800842  3.837816
  S    -5.247456  1.874221  2.348168
  S    -5.187146  5.287184  2.390393
  S    -2.216923  2.101915 -0.350979
  S    -1.969381  5.385193 -0.172041
  S    -2.896211  2.452345  3.736166
  S    -2.830397  6.168552  3.782010
