16  
    
  C     0.184129  3.353750  2.415962
  C     0.044155  7.226069  2.803561
  C    -1.020225  2.877990  1.689132
  C    -1.132859  6.882540  2.116675
  N     1.163022  3.641040  1.608450
  N     1.121451  7.401151  2.031738
  N    -0.993548  2.993061  0.371732
  N    -1.008096  6.692712  0.787979
  N    -1.615732  2.851812  4.260249
  N    -1.779535  6.987726  4.648581
  S    -2.329885  2.554073  2.755050
  S    -2.461209  6.464034  3.235658
  S     0.590292  3.361308  0.018026
  S     0.611825  7.052187  0.409498
  S    -0.030806  3.477950  4.174291
  S    -0.209062  7.437635  4.521950
