16  
    
  C     0.868738  3.862607  2.547974
  C     1.534724  7.906026  3.248309
  C    -0.308326  3.593873  1.833045
  C     0.262485  7.808654  2.602886
  N     1.910460  4.183230  1.771126
  N     2.584954  7.862663  2.418172
  N    -0.052069  3.361329  0.544131
  N     0.245424  7.770219  1.257631
  N    -0.898369  3.672079  4.351078
  N    -0.220629  7.860715  5.174390
  S    -1.627883  3.169436  2.883027
  S    -1.099263  7.765131  3.764505
  S     1.517001  3.737540  0.248617
  S     1.873825  7.838144  0.935244
  S     0.688003  4.052324  4.308267
  S     1.405654  8.020922  5.030042
