16  
    
  C     2.385007  4.662130  3.422906
  C     2.568396  8.645337  3.510119
  C     1.210087  4.293123  2.666981
  C     1.304994  8.269871  2.980482
  N     3.406758  5.115961  2.703662
  N     3.524599  8.879082  2.579444
  N     1.476479  4.065802  1.386323
  N     1.266200  8.177152  1.664171
  N     0.565949  4.269601  5.183134
  N     0.870130  8.585998  5.506217
  S    -0.110793  3.951130  3.714005
  S     0.055927  8.108392  4.082655
  S     2.975241  4.777854  1.133062
  S     2.787634  8.490102  1.056424
  S     2.210464  4.819177  5.086037
  S     2.479073  8.892825  5.237137
