16  
    
  C    -5.494252  1.155869  1.298501
  C    -5.263048  5.241229  1.402532
  C    -6.645095  0.531150  0.602153
  C    -6.358988  4.475015  0.719333
  N    -4.439865  1.441678  0.556007
  N    -4.259385  5.565305  0.597052
  N    -6.529772  0.466449 -0.719641
  N    -6.162327  4.226456 -0.563873
  N    -7.321914  0.670680  3.048893
  N    -6.931176  4.439005  3.257921
  S    -7.957709  0.014801  1.666703
  S    -7.532011  3.777630  1.827425
  S    -4.956261  1.015004 -1.012804
  S    -4.673521  4.844024 -0.872102
  S    -5.692594  1.108890  3.068477
  S    -5.460221  5.229524  3.154994
