16  
    
  C     0.978038  3.969974  2.803664
  C     1.100784  7.641464  3.119574
  C    -0.363157  3.524394  2.301049
  C    -0.140331  7.105432  2.493020
  N     1.973229  3.914803  1.936882
  N     2.121378  7.643957  2.259478
  N    -0.311808  2.983319  1.097429
  N    -0.003516  6.856110  1.185495
  N    -0.646141  4.141317  4.816482
  N    -0.617295  7.416635  4.997814
  S    -1.560659  3.350323  3.583707
  S    -1.486632  7.071484  3.589474
  S     1.221482  3.285035  0.495246
  S     1.570473  7.088674  0.753386
  S     0.919478  4.425817  4.460679
  S     0.966621  8.009341  4.758919
