16  
    
  C    -0.129764  3.410015  2.575940
  C    -0.064354  6.964403  2.588033
  C    -1.101456  2.541862  2.008490
  C    -1.285502  6.626777  1.872251
  N     0.894744  3.676777  1.789892
  N     0.859489  7.399554  1.748396
  N    -0.898128  2.253860  0.733702
  N    -1.165908  6.691787  0.531788
  N    -1.931254  2.836528  4.406496
  N    -1.790718  6.523856  4.374432
  S    -2.562543  2.322168  2.929565
  S    -2.575849  6.208266  2.942924
  S     0.431328  3.130898  0.267480
  S     0.384805  7.204386  0.196888
  S    -0.389014  3.481928  4.298789
  S    -0.190532  6.928047  4.276340
