16  
    
  C    -1.514799  2.771482  2.072673
  C    -1.182790  6.757444  2.166618
  C    -2.573527  2.077745  1.433985
  C    -2.435203  6.338743  1.608367
  N    -0.514979  3.175975  1.270186
  N    -0.195333  6.825103  1.293262
  N    -2.263130  1.731081  0.184516
  N    -2.530680  6.238948  0.271690
  N    -3.369892  2.415013  3.845382
  N    -2.902987  6.736607  4.223479
  S    -3.901968  1.637363  2.498742
  S    -3.711235  6.287466  2.876520
  S    -0.823072  2.421197 -0.181566
  S    -0.915459  6.372927 -0.203899
  S    -1.872033  3.075416  3.744514
  S    -1.302856  7.107159  3.940048
