16  
    
  C     1.660891  4.458690  3.410794
  C     1.400296  7.933586  3.088468
  C     0.300904  4.184357  2.904512
  C     0.202449  7.521576  2.408302
  N     2.616371  4.324814  2.501789
  N     2.423029  8.267926  2.310248
  N     0.294260  3.996873  1.580542
  N     0.333679  7.477185  1.075417
  N    -0.062327  4.680457  5.425042
  N    -0.406502  7.724683  4.889694
  S    -1.040606  4.204098  4.099509
  S    -1.171320  7.243367  3.492703
  S     1.817272  4.071655  1.082702
  S     1.865012  7.945379  0.758096
  S     1.571322  4.870864  5.120742
  S     1.207237  8.222885  4.750240
