16  
    
  C     2.451028  4.999794  3.508519
  C     2.463725  8.656113  3.413229
  C     1.321204  4.418828  2.805149
  C     1.244359  8.058362  2.890040
  N     3.560396  4.949259  2.768302
  N     3.416956  8.895694  2.492021
  N     1.493631  4.387369  1.500061
  N     1.307623  7.889705  1.568838
  N     0.633449  4.509680  5.262862
  N     0.968590  8.461205  5.433835
  S     0.002465  3.924080  3.781721
  S     0.027943  7.913421  4.199633
  S     3.077014  4.692194  1.228332
  S     2.840484  8.325210  1.103562
  S     2.200638  5.034908  5.207324
  S     2.474445  8.953827  5.090641
