16  
    
  C    -4.457520  1.643368  1.939731
  C    -4.666539  5.043177  1.694865
  C    -5.633747  0.978944  1.350519
  C    -5.804766  4.432002  1.057925
  N    -3.448722  1.749711  1.111628
  N    -3.626579  5.295256  0.932952
  N    -5.497480  0.840766  0.018823
  N    -5.682209  4.338093 -0.246554
  N    -5.995060  1.078641  3.928194
  N    -6.389480  4.709110  3.526109
  S    -6.807798  0.634300  2.515855
  S    -7.097372  4.022069  2.153138
  S    -3.999454  1.257665 -0.377441
  S    -4.129906  4.899710 -0.602616
  S    -4.386349  1.776350  3.699278
  S    -4.803506  5.209731  3.383259
