16  
    
  C    -0.021836  3.801972  2.403385
  C     0.413733  7.363822  2.835785
  C    -1.208671  3.120645  1.832212
  C    -0.793410  6.827215  2.186194
  N     1.001297  3.741975  1.537476
  N     1.409905  7.690981  2.017654
  N    -1.133028  2.842133  0.493919
  N    -0.671858  6.672500  0.860229
  N    -1.749685  3.490263  4.316722
  N    -1.447610  7.320487  4.607840
  S    -2.513179  3.025449  2.929430
  S    -2.118716  6.635119  3.260473
  S     0.378102  3.254635  0.058757
  S     0.828010  7.136476  0.538077
  S    -0.107672  3.992754  4.151477
  S     0.151434  7.919202  4.444385
