16  
    
  C     2.147296  4.396143  3.015889
  C     2.004920  8.115554  3.132788
  C     0.935587  4.010534  2.370710
  C     0.850693  7.544014  2.498886
  N     3.161160  4.710024  2.225684
  N     3.097781  8.235201  2.377356
  N     1.154173  3.580036  1.150906
  N     1.114635  7.119733  1.250458
  N     0.273182  4.467060  4.803980
  N     0.058494  8.232761  4.824006
  S    -0.410248  3.965832  3.336141
  S    -0.576956  7.550805  3.466125
  S     2.749135  4.017089  0.729276
  S     2.684335  7.517650  0.951032
  S     1.884222  4.802738  4.736588
  S     1.716102  8.481919  4.848116
