16  
    
  C     0.576442  3.713000  3.125509
  C     1.107271  7.554843  2.682276
  C    -0.530314  3.239353  2.258144
  C    -0.061735  6.963807  2.000799
  N     1.611123  4.174762  2.410071
  N     2.073010  7.906265  1.841846
  N    -0.117539  3.056328  1.020839
  N     0.001163  6.946340  0.653124
  N    -1.348243  3.070468  4.675085
  N    -0.703966  6.957423  4.554358
  S    -1.894151  2.546045  3.145869
  S    -1.417787  6.554848  3.069842
  S     1.316749  3.869246  0.842902
  S     1.532959  7.556867  0.315263
  S     0.092789  3.789653  4.737527
  S     0.848748  7.599063  4.431288
