16  
    
  C    -4.258802  1.639090  1.960891
  C    -4.525942  5.261013  1.692666
  C    -5.429920  1.031052  1.323313
  C    -5.778795  4.752063  1.132061
  N    -3.168816  1.758102  1.198697
  N    -3.532177  5.316491  0.816843
  N    -5.210666  0.658297  0.087886
  N    -5.689574  4.541740 -0.188443
  N    -6.228207  1.602952  3.783437
  N    -6.226376  5.243699  3.659524
  S    -6.824445  0.998351  2.331011
  S    -7.008709  4.675590  2.356731
  S    -3.570715  1.096664 -0.298135
  S    -4.124117  4.851275 -0.662545
  S    -4.638168  1.984166  3.619448
  S    -4.673937  5.503427  3.418963
