16  
    
  C     0.859444  4.169750  2.524329
  C     1.526871  8.495305  3.099625
  C    -0.173951  3.418281  1.919903
  C     0.279420  8.232869  2.447688
  N     1.984820  4.319962  1.778744
  N     2.610204  8.605126  2.314037
  N    -0.021446  3.357209  0.595439
  N     0.362959  8.189933  1.115832
  N    -0.887111  3.727089  4.369198
  N    -0.182737  8.132838  5.081743
  S    -1.553159  3.153698  2.943202
  S    -1.021264  7.999215  3.660517
  S     1.493188  3.857160  0.277218
  S     1.938317  8.444110  0.746521
  S     0.614507  4.347352  4.226808
  S     1.396055  8.695116  4.850125
