16  
    
  C    -1.143344  3.003124  2.361952
  C    -0.800403  6.957516  2.267877
  C    -2.409835  2.836642  1.751369
  C    -2.070338  6.552834  1.694177
  N    -0.104749  3.109906  1.539650
  N     0.230520  6.925112  1.420916
  N    -2.323550  2.521979  0.473164
  N    -2.040782  6.337314  0.357654
  N    -2.943421  3.172923  4.207076
  N    -2.368930  6.532140  4.291273
  S    -3.759292  3.016773  2.794260
  S    -3.284470  6.432535  2.912354
  S    -0.719445  2.661893  0.062651
  S    -0.483953  6.613958 -0.066494
  S    -1.312399  3.265543  4.121180
  S    -0.698249  6.920237  4.015938
