16  
    
  C    -5.432613  1.089932  1.275596
  C    -5.382624  4.955022  1.494365
  C    -6.539587  0.450812  0.596907
  C    -6.504121  4.315829  0.747352
  N    -4.360912  1.425559  0.562055
  N    -4.331587  5.274581  0.750906
  N    -6.440221  0.435805 -0.741677
  N    -6.258728  4.228475 -0.569441
  N    -7.173408  0.482440  3.083882
  N    -7.077805  4.246628  3.309858
  S    -7.939368  0.139723  1.651598
  S    -7.868253  4.050558  1.867803
  S    -4.946451  1.153948 -1.040157
  S    -4.763050  4.916736 -0.824728
  S    -5.721799  1.160432  2.964262
  S    -5.683311  5.204671  3.240065
