16  
    
  C     2.498660  4.820719  3.508866
  C     2.454583  8.695721  3.357582
  C     1.337913  4.423517  2.779892
  C     1.223758  8.138769  2.902650
  N     3.602663  5.000270  2.757398
  N     3.461173  8.899758  2.533238
  N     1.457967  4.359210  1.451264
  N     1.309571  7.852943  1.594933
  N     0.547425  4.491648  5.293207
  N     0.966144  8.415845  5.481636
  S     0.038747  3.918593  3.725077
  S     0.038808  7.978503  4.207481
  S     3.040085  4.703903  1.214172
  S     2.836471  8.353096  1.109634
  S     2.157362  5.005142  5.221225
  S     2.543351  8.905191  5.083309
