16  
    
  C    -3.580940  2.026140  1.636403
  C    -3.994382  5.231412  1.641688
  C    -4.804363  1.513726  1.093493
  C    -5.185893  4.719804  1.015916
  N    -2.563355  2.314165  0.858104
  N    -3.010876  5.393502  0.756547
  N    -4.719922  1.346226 -0.199133
  N    -5.060060  4.379959 -0.259379
  N    -5.127807  1.393396  3.557487
  N    -5.611005  5.036579  3.561584
  S    -5.999731  1.001171  2.194433
  S    -6.407525  4.417227  2.236569
  S    -3.182325  1.793614 -0.660947
  S    -3.527987  4.942827 -0.682415
  S    -3.649301  2.160531  3.404966
  S    -4.076398  5.558140  3.349881
