16  
    
  C     3.170495  5.157698  3.494185
  C     3.335439  8.936144  3.699649
  C     1.927525  4.833831  2.860224
  C     2.079315  8.765988  3.044085
  N     4.240914  4.999829  2.693881
  N     4.383446  8.733416  2.872727
  N     1.999224  4.557185  1.572304
  N     2.179937  8.550874  1.686189
  N     1.359822  5.119716  5.396463
  N     1.769125  9.036819  5.699523
  S     0.591567  4.720209  4.020030
  S     0.840549  9.144219  4.320587
  S     3.610890  4.644494  1.143867
  S     3.782252  8.369943  1.422365
  S     3.001848  5.297933  5.216342
  S     3.426295  9.255482  5.386980
