16  
    
  C     3.151027  5.228065  3.406173
  C     3.339626  9.196617  3.772758
  C     1.956318  4.671042  2.736841
  C     2.203279  8.852783  2.971047
  N     4.272383  5.179576  2.694936
  N     4.386459  9.423686  3.011011
  N     2.165378  4.474222  1.419899
  N     2.419406  8.697766  1.635851
  N     1.357145  4.910801  5.233612
  N     1.430799  8.744306  5.331216
  S     0.635863  4.470868  3.826267
  S     0.755561  8.713948  3.903812
  S     3.752458  4.820463  1.112025
  S     3.995296  8.931284  1.479693
  S     2.978689  5.264096  5.089202
  S     2.960903  9.282076  5.489486
