16  
    
  C     2.042943  4.914038  3.194780
  C     2.022925  8.563131  3.267768
  C     0.882085  4.506366  2.451030
  C     0.771655  8.258174  2.605643
  N     3.080834  5.210389  2.431561
  N     3.099569  8.678881  2.507513
  N     1.096593  4.547740  1.156571
  N     0.985406  8.264982  1.271653
  N     0.120991  4.511030  4.837555
  N     0.342520  8.273594  5.152618
  S    -0.547522  4.184943  3.324177
  S    -0.487494  7.856878  3.775078
  S     2.648324  4.930830  0.855919
  S     2.569647  8.685744  0.987165
  S     1.663389  5.223400  4.918349
  S     1.904639  8.776580  4.985395
