16  
    
  C     2.228630  4.306685  3.061618
  C     1.976002  8.266097  3.128077
  C     1.078724  4.039912  2.274441
  C     0.850601  7.614427  2.584231
  N     3.370197  4.475414  2.359318
  N     3.061773  8.194868  2.347884
  N     1.348623  3.835487  0.976363
  N     1.067135  7.071281  1.404256
  N     0.249233  4.372927  4.701251
  N     0.136829  8.267927  4.891027
  S    -0.399510  3.920648  3.309891
  S    -0.564979  7.578272  3.562115
  S     2.941978  4.024282  0.833582
  S     2.564655  7.425465  0.922451
  S     1.821046  4.807994  4.690724
  S     1.634128  8.914007  4.734269
