16  
    
  C    -4.449724  1.203037  1.884532
  C    -4.637523  4.736976  1.649856
  C    -5.589540  0.681788  1.193252
  C    -5.825744  4.393805  0.859903
  N    -3.468902  1.522096  1.035842
  N    -3.586886  5.082036  0.896812
  N    -5.655302  0.745458 -0.121377
  N    -5.685308  4.472896 -0.456521
  N    -6.151743  0.660462  3.756193
  N    -6.612686  4.088765  3.249005
  S    -6.906037  0.381893  2.232479
  S    -7.171764  3.799013  1.712325
  S    -4.065354  1.333396 -0.483683
  S    -4.190504  5.018243 -0.641520
  S    -4.512494  1.119503  3.598607
  S    -4.969489  4.482425  3.331239
