16  
    
  C     3.073861  5.181537  3.423505
  C     3.360889  9.060789  3.470536
  C     1.942458  4.633127  2.744134
  C     2.093292  8.715130  2.893201
  N     4.100985  5.537415  2.619224
  N     4.303930  9.140057  2.521289
  N     2.173122  4.263125  1.485634
  N     2.091888  8.452178  1.612597
  N     1.200370  4.868721  5.148006
  N     1.699152  8.836231  5.511451
  S     0.619805  4.209714  3.703985
  S     0.840047  8.613570  4.088569
  S     3.571776  4.929209  1.114340
  S     3.611543  8.620742  1.115477
  S     2.749152  5.461809  5.077665
  S     3.340694  9.263855  5.222558
