16  
    
  C     2.315337  4.784772  3.303935
  C     2.414678  8.679493  3.500196
  C     1.093566  4.437725  2.644723
  C     1.149978  8.359415  2.867202
  N     3.300714  4.984253  2.458921
  N     3.376809  8.872955  2.631808
  N     1.202433  4.318768  1.336171
  N     1.193262  8.393595  1.540010
  N     0.645150  4.255410  5.140712
  N     0.542354  8.721309  5.362981
  S    -0.142060  3.837534  3.739088
  S    -0.169691  8.156533  3.976151
  S     2.713677  4.787125  0.911819
  S     2.764299  8.621707  1.137504
  S     2.169105  4.706588  5.027750
  S     2.194556  9.057906  5.211142
