16  
    
  C     2.283660  4.341161  3.048154
  C     1.911219  8.344073  3.103729
  C     1.053705  4.098499  2.286230
  C     0.769179  7.658287  2.561717
  N     3.423451  4.393644  2.332122
  N     3.012969  8.317489  2.352340
  N     1.337816  3.710181  1.059510
  N     1.011156  7.181932  1.349014
  N     0.211248  4.431034  4.639795
  N     0.142571  8.609638  4.842169
  S    -0.357082  3.828082  3.244536
  S    -0.515535  7.562468  3.737991
  S     2.887634  3.978671  0.822492
  S     2.591158  7.543452  0.932071
  S     1.877108  4.646594  4.757518
  S     1.698326  9.049279  4.630652
