16  
    
  C    -4.384725  0.910791  1.796885
  C    -4.719312  4.557727  1.629250
  C    -5.650988  0.683460  1.137659
  C    -5.920528  4.264147  0.827491
  N    -3.426117  1.382093  0.976730
  N    -3.741464  5.016104  0.879518
  N    -5.549388  0.770724 -0.169123
  N    -5.792773  4.501799 -0.472180
  N    -6.148870  0.643657  3.564940
  N    -6.591075  4.250420  3.287802
  S    -7.067938  0.444931  2.214084
  S    -7.293894  3.856573  1.777521
  S    -4.120062  1.297897 -0.541601
  S    -4.216653  5.013163 -0.723451
  S    -4.592686  1.090312  3.482163
  S    -4.948814  4.460894  3.354558
