16  
    
  C     2.325336  4.778140  3.395355
  C     2.520691  8.665172  3.490753
  C     1.218872  4.221115  2.683831
  C     1.252964  8.310099  2.910747
  N     3.325143  5.141867  2.610543
  N     3.492478  8.755224  2.620222
  N     1.403666  4.175424  1.370612
  N     1.287145  8.225688  1.579653
  N     0.678047  4.265736  5.130822
  N     0.809631  8.667269  5.414443
  S    -0.104742  3.943844  3.713842
  S    -0.016517  8.095659  4.132592
  S     2.930382  4.722144  1.077922
  S     2.827361  8.589792  1.135379
  S     2.172529  4.751288  5.111298
  S     2.440756  8.938617  5.186633
