16  
    
  C    -0.749392  2.992730  2.428957
  C    -1.009192  6.417216  2.536501
  C    -1.997217  2.638949  1.846794
  C    -2.224926  6.004774  1.801289
  N     0.316060  3.047359  1.653351
  N     0.063122  6.567149  1.750301
  N    -1.882499  2.409141  0.569362
  N    -2.029733  5.766325  0.505788
  N    -2.460962  2.727912  4.412032
  N    -2.896679  6.189158  4.203643
  S    -3.301239  2.440103  2.968797
  S    -3.570035  5.614957  2.814920
  S    -0.304405  2.771375  0.111487
  S    -0.531238  6.254539  0.234378
  S    -0.853800  3.261399  4.176918
  S    -1.284847  6.616374  4.222383
