16  
    
  C    -5.521174  1.065978  1.305967
  C    -5.215110  5.055569  1.376374
  C    -6.700649  0.580064  0.654099
  C    -6.263035  4.285528  0.737071
  N    -4.493141  1.361481  0.537541
  N    -4.294716  5.440478  0.542606
  N    -6.485477  0.418286 -0.628540
  N    -6.076109  4.159808 -0.559537
  N    -7.296643  0.615749  3.185151
  N    -6.823274  4.483452  3.278059
  S    -7.922447  0.043491  1.719851
  S    -7.436596  3.785108  1.925105
  S    -4.973335  0.947631 -0.999297
  S    -4.651532  4.959444 -1.007904
  S    -5.748690  1.134979  3.012969
  S    -5.383325  5.297148  3.088164
