16  
    
  C    -5.861323  0.843829  1.547180
  C    -6.088970  4.478252  1.682730
  C    -7.002011  0.149836  0.999801
  C    -7.248968  4.084224  0.940492
  N    -4.879044  1.182824  0.704993
  N    -5.048919  4.655104  0.891543
  N    -6.888430  0.088742 -0.315121
  N    -7.100250  4.085270 -0.378447
  N    -7.603789  0.485845  3.417437
  N    -7.873078  4.071795  3.365321
  S    -8.298733 -0.081810  2.073665
  S    -8.652590  3.989319  1.869562
  S    -5.459488  0.815980 -0.819391
  S    -5.491674  4.461622 -0.688095
  S    -6.048253  1.050567  3.263637
  S    -6.308234  4.726050  3.391445
