16  
    
  C    -4.180355  1.520649  1.895081
  C    -4.059970  5.285286  1.835257
  C    -5.377411  0.957352  1.350352
  C    -5.304156  4.642920  1.254657
  N    -3.226468  1.699553  0.995954
  N    -3.071072  5.353653  0.938530
  N    -5.265616  0.518322  0.091497
  N    -5.192838  4.235593  0.012042
  N    -5.967554  1.713949  3.731009
  N    -5.783410  5.183003  3.612563
  S    -6.716751  0.928192  2.453829
  S    -6.630871  4.560416  2.351444
  S    -3.783625  1.050391 -0.386797
  S    -3.662890  4.625795 -0.461678
  S    -4.317982  2.125510  3.533034
  S    -4.173406  5.657996  3.510723
