16  
    
  C    -4.168530  1.521801  1.916704
  C    -4.039213  5.271672  1.851941
  C    -5.376308  0.962097  1.359229
  C    -5.293512  4.640880  1.264513
  N    -3.225310  1.710516  0.999353
  N    -3.066315  5.362308  0.941731
  N    -5.253842  0.517167  0.090854
  N    -5.185614  4.224741  0.022145
  N    -5.952606  1.723599  3.718236
  N    -5.778253  5.195779  3.606445
  S    -6.710785  0.928407  2.460467
  S    -6.611779  4.560737  2.343016
  S    -3.800960  1.049952 -0.387087
  S    -3.655636  4.621277 -0.451478
  S    -4.314259  2.109712  3.525501
  S    -4.168579  5.660834  3.516708
