16  
    
  C    -0.470478  3.451055  2.919434
  C    -1.000387  6.771681  2.763567
  C    -1.620425  2.855148  2.269341
  C    -2.093587  6.241365  1.894942
  N     0.624901  3.450038  2.194590
  N     0.126235  7.058784  2.128253
  N    -1.473221  2.611494  0.959884
  N    -1.734626  6.150149  0.622394
  N    -2.265198  3.409598  4.705308
  N    -2.974978  6.326923  4.291831
  S    -2.988271  2.778343  3.360967
  S    -3.602624  6.006733  2.731651
  S     0.090997  3.080993  0.624725
  S    -0.192867  6.599751  0.597724
  S    -0.671862  3.756450  4.626568
  S    -1.429951  6.930109  4.358567
