16  
    
  C    -1.484371  3.446206  2.018512
  C    -0.940485  6.862385  2.542708
  C    -2.527402  2.642616  1.455574
  C    -2.245192  6.822499  1.922101
  N    -0.466166  3.728346  1.181468
  N     0.073397  6.894675  1.666429
  N    -2.357998  2.509667  0.126640
  N    -2.280233  6.735216  0.571409
  N    -3.043550  2.799972  3.971160
  N    -2.728891  6.834777  4.452049
  S    -3.729237  2.212345  2.548648
  S    -3.599512  6.602769  3.030704
  S    -0.916250  3.153151 -0.307955
  S    -0.666607  6.983110  0.141847
  S    -1.543298  3.566910  3.774616
  S    -1.073800  7.040693  4.314835
