16  
    
  C    -1.289617  3.343758  2.068639
  C    -1.014112  6.828729  2.604863
  C    -2.490765  2.750796  1.503062
  C    -2.241019  6.573323  1.964950
  N    -0.320225  3.671265  1.215043
  N    -0.050390  7.067549  1.751635
  N    -2.410810  2.595410  0.173671
  N    -2.251141  6.747312  0.657647
  N    -2.909751  2.859189  3.999505
  N    -2.756349  6.822874  4.435618
  S    -3.651522  2.199674  2.672297
  S    -3.570184  6.678729  3.036699
  S    -0.934814  3.251401 -0.292052
  S    -0.668032  7.031825  0.234737
  S    -1.480009  3.642475  3.752827
  S    -1.108792  6.985475  4.296910
