16  
    
  C     1.941448  4.861140  3.000104
  C     2.340329  8.500502  3.162050
  C     0.867605  4.148610  2.331610
  C     1.169157  8.043902  2.521106
  N     2.942891  5.140453  2.177707
  N     3.355026  8.674024  2.313708
  N     1.034805  4.026739  1.015488
  N     1.256798  7.921282  1.206412
  N     0.264094  4.337534  4.869490
  N     0.459150  8.291096  4.960342
  S    -0.558597  4.107179  3.428455
  S    -0.195555  7.740107  3.508516
  S     2.540229  4.634936  0.660225
  S     2.769621  8.307586  0.735242
  S     1.787011  5.071647  4.785481
  S     2.062945  8.806657  4.879133
