16  
    
  C     3.115709  5.104103  3.447229
  C     3.163643  8.745718  3.718336
  C     1.829319  4.768186  2.819736
  C     1.834904  8.509927  3.258856
  N     4.117876  5.138627  2.581307
  N     4.110622  8.586821  2.855572
  N     1.949951  4.443773  1.540227
  N     1.842608  8.235329  1.930063
  N     1.389158  5.022118  5.358030
  N     1.778126  9.385067  5.828354
  S     0.547864  4.562375  3.988969
  S     0.657999  9.030745  4.550451
  S     3.514644  4.691847  1.072862
  S     3.396008  8.232613  1.454691
  S     3.056269  5.273751  5.192065
  S     3.404080  9.367253  5.286502
