16  
    
  C     3.113394  5.046712  3.452777
  C     3.145479  8.699212  3.716955
  C     1.812502  4.794209  2.821756
  C     1.819064  8.508765  3.253347
  N     4.121531  5.132588  2.604611
  N     4.130725  8.614126  2.831600
  N     1.952990  4.376800  1.552091
  N     1.849341  8.250135  1.906838
  N     1.389226  5.015220  5.382700
  N     1.791542  9.387236  5.811772
  S     0.534265  4.576154  4.027440
  S     0.683931  9.051291  4.550318
  S     3.535017  4.707977  1.058903
  S     3.424665  8.214992  1.437185
  S     3.062519  5.295312  5.184799
  S     3.422589  9.356726  5.310274
