16  
    
  C     1.095527  4.290583  2.829503
  C     1.577487  8.675592  2.953280
  C    -0.102590  3.867201  2.050670
  C     0.427656  8.093344  2.367038
  N     2.186577  4.667066  2.131249
  N     2.573119  8.924769  2.126229
  N     0.181491  3.603561  0.778281
  N     0.609104  7.878235  1.079481
  N    -0.864212  3.842867  4.516571
  N    -0.105340  8.463841  4.871663
  S    -1.484330  3.355530  3.006804
  S    -0.899505  8.075455  3.515862
  S     1.699945  4.220390  0.543065
  S     2.132289  8.373402  0.586075
  S     0.694579  4.345048  4.504833
  S     1.468786  8.879257  4.653331
