16  
    
  C    -1.879332  2.413231  2.480601
  C    -1.745858  5.775782  2.393713
  C    -3.156272  2.244077  1.860754
  C    -2.891555  5.506794  1.614855
  N    -0.805448  2.579108  1.703801
  N    -0.645737  5.977157  1.635542
  N    -3.039003  2.180967  0.536546
  N    -2.717535  5.702254  0.294578
  N    -3.649610  2.223269  4.348331
  N    -3.624670  5.600412  4.044785
  S    -4.489406  1.967935  2.902147
  S    -4.301374  5.328422  2.566262
  S    -1.392528  2.438325  0.151324
  S    -1.086475  5.879007  0.030893
  S    -2.009213  2.498951  4.243433
  S    -1.989531  5.940744  4.135807
