16  
    
  C    -1.250635  3.473310  2.117505
  C    -1.054756  7.079710  2.658013
  C    -2.392009  2.706089  1.636007
  C    -2.349978  6.910133  1.982468
  N    -0.315199  3.662472  1.199912
  N    -0.031424  7.261913  1.800549
  N    -2.369771  2.561614  0.314770
  N    -2.322023  6.729625  0.639242
  N    -2.742223  2.917615  4.172428
  N    -2.771993  6.602764  4.450372
  S    -3.593560  2.385071  2.812591
  S    -3.657933  6.654369  3.065295
  S    -0.971515  3.195307 -0.251246
  S    -0.717546  6.859865  0.327263
  S    -1.165620  3.454397  3.846744
  S    -1.185980  7.011338  4.346639
