16  
    
  C    -3.509586  1.605118  2.124462
  C    -3.260927  5.319628  2.062923
  C    -4.658741  1.144454  1.411863
  C    -4.545849  5.010423  1.467281
  N    -2.428807  1.554193  1.372789
  N    -2.277528  5.456014  1.199644
  N    -4.474678  0.825575  0.124963
  N    -4.490975  4.846297  0.144171
  N    -5.329654  1.401686  3.844795
  N    -4.955109  5.388074  3.983645
  S    -6.144692  1.111538  2.384462
  S    -5.812783  4.956037  2.617046
  S    -2.872823  1.128725 -0.142621
  S    -2.837744  5.021745 -0.264055
  S    -3.713633  1.892628  3.843963
  S    -3.364295  5.683435  3.766635
