16  
    
  C     2.990681  5.144488  3.227340
  C     2.860901  9.201168  3.797011
  C     1.784446  4.642744  2.583737
  C     1.727326  8.650232  3.047199
  N     4.017184  5.139376  2.408798
  N     3.953785  9.368426  3.062614
  N     1.871607  4.379714  1.288923
  N     1.882733  8.571394  1.719499
  N     1.137798  4.970259  5.086298
  N     1.142592  8.799463  5.679876
  S     0.442910  4.435990  3.654184
  S     0.432424  8.305580  4.250787
  S     3.472743  4.792346  0.888595
  S     3.604519  8.861392  1.538979
  S     2.761431  5.383478  4.973378
  S     2.703485  9.452196  5.469886
