16  
    
  C    -4.585287  1.164176  1.554731
  C    -4.825025  4.670708  1.660720
  C    -5.845977  0.882993  0.893082
  C    -6.055198  4.441582  0.983004
  N    -3.556733  1.199618  0.724265
  N    -3.812283  4.863562  0.836723
  N    -5.806384  0.863948 -0.418397
  N    -5.994847  4.428373 -0.339730
  N    -6.423450  0.731484  3.366722
  N    -6.599912  4.147153  3.439556
  S    -7.242788  0.627685  1.850617
  S    -7.397857  4.135501  1.962032
  S    -4.147414  0.919650 -0.813263
  S    -4.381725  4.590747 -0.709685
  S    -4.722242  0.911423  3.213980
  S    -4.975500  4.577035  3.437618
