16  
    
  C    -4.402124  1.307838  1.954296
  C    -4.559382  4.836381  1.717598
  C    -5.610652  0.816047  1.327455
  C    -5.651036  4.353136  0.960620
  N    -3.576790  1.782105  1.076818
  N    -3.532873  5.262803  0.973495
  N    -5.606185  0.679984  0.019883
  N    -5.468646  4.319007 -0.336300
  N    -5.929727  0.861866  3.823780
  N    -6.448688  4.103348  3.353839
  S    -6.777356  0.405194  2.514320
  S    -7.011656  3.785473  1.827657
  S    -4.126904  1.461988 -0.449559
  S    -4.012733  5.047122 -0.602612
  S    -4.412093  1.504145  3.695763
  S    -4.928295  4.812905  3.388286
