16  
    
  C     0.849512  3.860226  2.543447
  C     1.543599  7.935899  3.249015
  C    -0.327279  3.561579  1.844551
  C     0.260027  7.814371  2.617004
  N     1.889022  4.158528  1.754657
  N     2.579447  7.857648  2.400804
  N    -0.080605  3.389115  0.525341
  N     0.245578  7.781581  1.281055
  N    -0.887286  3.665637  4.365511
  N    -0.219346  7.850509  5.198165
  S    -1.625771  3.165545  2.881398
  S    -1.091415  7.776765  3.760862
  S     1.503481  3.726526  0.253730
  S     1.890369  7.851894  0.920383
  S     0.710356  4.052044  4.315998
  S     1.413545  8.021092  5.049768
