16  
    
  C     0.623192  3.702230  3.189034
  C     1.099367  7.564383  2.745887
  C    -0.479734  3.237865  2.377611
  C    -0.103788  7.063398  1.971118
  N     1.619528  4.185129  2.484501
  N     2.191856  7.749347  2.004693
  N    -0.279680  3.256296  1.044158
  N     0.106865  6.844425  0.672750
  N    -1.227829  3.057862  4.840968
  N    -0.670790  7.111461  4.531427
  S    -1.825064  2.787495  3.270365
  S    -1.386394  6.649447  3.110360
  S     1.285439  3.854647  0.851187
  S     1.702825  7.331399  0.487052
  S     0.257165  3.708016  4.938159
  S     0.852591  7.779692  4.417334
