16  
    
  C     3.043836  5.131890  3.389977
  C     3.399432  8.992827  3.594425
  C     2.022104  4.362165  2.752148
  C     2.098387  8.665847  3.021018
  N     4.066222  5.477632  2.632677
  N     4.393706  9.007982  2.677077
  N     2.159183  4.348165  1.395729
  N     2.068390  8.439757  1.681660
  N     1.159513  5.077464  5.085240
  N     1.598911  8.844133  5.418946
  S     0.598490  4.139058  3.824205
  S     0.716670  8.591004  4.072796
  S     3.719889  4.997832  1.046179
  S     3.613139  8.787618  1.147236
  S     2.778707  5.380089  5.133803
  S     3.156713  9.296055  5.310668
