16  
    
  C    -3.601008  1.741912  2.075811
  C    -3.336673  5.340538  2.061096
  C    -4.655157  1.024731  1.404927
  C    -4.596440  4.947703  1.517023
  N    -2.515352  1.882144  1.299498
  N    -2.331294  5.286174  1.163503
  N    -4.407930  0.812126  0.112922
  N    -4.593109  4.634785  0.243620
  N    -5.526351  1.473187  3.771568
  N    -5.024764  5.357706  3.976318
  S    -6.132232  0.907831  2.373039
  S    -5.912501  4.927751  2.639964
  S    -2.837574  1.293289 -0.172642
  S    -3.029793  4.947230 -0.315697
  S    -4.007346  1.959109  3.711466
  S    -3.418535  5.739137  3.806707
