16  
    
  C     2.188502  4.377546  3.002627
  C     2.117214  8.497822  3.115585
  C     0.989279  3.951348  2.223776
  C     0.977038  7.709788  2.639758
  N     3.240363  4.557502  2.221552
  N     3.066990  8.662049  2.174974
  N     1.217991  3.547842  0.978739
  N     1.077447  7.212794  1.414835
  N     0.367481  4.210774  4.767343
  N     0.251060  8.554106  4.895846
  S    -0.431909  3.901196  3.346793
  S    -0.424982  7.805382  3.593532
  S     2.787185  4.113266  0.686547
  S     2.587042  7.709789  0.848324
  S     2.001243  4.559982  4.721898
  S     1.794960  9.107316  4.742870
