16  
    
  C     0.502745  3.622292  2.956601
  C     0.596299  7.508770  2.909375
  C    -0.816850  3.637070  2.371333
  C    -0.608413  7.064177  2.135190
  N     1.452606  3.737362  2.029432
  N     1.659330  7.665427  2.129134
  N    -0.860657  3.540056  1.033448
  N    -0.406788  6.814597  0.838755
  N    -1.135948  3.502762  4.941450
  N    -1.432068  7.263175  4.633462
  S    -2.026850  3.309507  3.588082
  S    -2.092659  7.056360  3.110569
  S     0.706369  3.851988  0.541921
  S     1.140837  7.200940  0.607892
  S     0.539601  3.621372  4.700038
  S     0.225833  7.788211  4.636518
