16  
    
  C     0.794420  3.672712  2.806976
  C     0.548631  7.605377  2.729254
  C    -0.560108  3.366560  2.269925
  C    -0.611229  6.937858  2.245455
  N     1.673398  4.063992  1.885297
  N     1.467142  7.796805  1.787470
  N    -0.509819  3.328430  0.958615
  N    -0.519908  6.613830  0.947817
  N    -1.009199  3.559670  4.746770
  N    -0.937740  7.281208  4.808880
  S    -1.870712  3.236344  3.420466
  S    -1.785359  6.636275  3.511970
  S     0.986045  3.683296  0.448474
  S     0.971727  7.181951  0.362156
  S     0.650796  3.845404  4.561150
  S     0.464052  8.111781  4.349535
