16  
    
  C    -4.172037  1.396793  1.749487
  C    -4.143622  5.148129  1.979095
  C    -5.383022  1.212352  1.068544
  C    -5.422644  4.952004  1.340650
  N    -3.065431  1.303739  1.005161
  N    -3.103390  5.204288  1.148059
  N    -5.235322  1.146076 -0.238101
  N    -5.408911  4.734963  0.040857
  N    -6.071519  1.551749  3.530565
  N    -5.873504  5.273294  3.866724
  S    -6.837690  1.261590  2.097329
  S    -6.703553  4.977992  2.432355
  S    -3.593544  1.153215 -0.528893
  S    -3.813852  4.825949 -0.360637
  S    -4.445104  1.536507  3.501462
  S    -4.238151  5.330326  3.704717
