16  
    
  C    -5.380263  1.252892  1.417341
  C    -5.357204  4.557832  1.593105
  C    -6.624241  0.901638  0.816395
  C    -6.642112  4.200535  1.100451
  N    -4.320542  1.235365  0.594491
  N    -4.445176  4.730850  0.638072
  N    -6.504172  0.664013 -0.503631
  N    -6.663340  3.948747 -0.210494
  N    -7.131572  1.074693  3.391383
  N    -6.892543  4.809619  3.522937
  S    -7.886517  0.741924  1.947079
  S    -7.828694  4.065771  2.325681
  S    -4.909753  0.732383 -0.848888
  S    -5.137863  4.335635 -0.786213
  S    -5.457243  1.331330  3.144672
  S    -5.229222  4.719410  3.296618
