16  
    
  C    -3.325596  1.787386  2.035536
  C    -3.083057  5.442585  2.081275
  C    -4.606876  1.488099  1.444653
  C    -4.227648  4.886626  1.433963
  N    -2.435692  2.017894  1.079449
  N    -2.077707  5.695842  1.265767
  N    -4.613156  1.288828  0.123948
  N    -4.118823  4.714734  0.147462
  N    -4.913093  1.340500  4.086016
  N    -4.963998  5.207934  3.855255
  S    -5.813389  1.054679  2.691225
  S    -5.581900  4.564081  2.442616
  S    -3.116055  1.737617 -0.421811
  S    -2.500190  5.122993 -0.191920
  S    -3.303229  1.893824  3.822172
  S    -3.337474  5.799174  3.767000
