16  
    
  C     0.422436  3.447092  2.950759
  C     0.390725  7.567667  2.826267
  C    -0.850496  3.518385  2.288787
  C    -0.922284  7.299801  2.268771
  N     1.435228  3.684274  2.134140
  N     1.394690  7.740645  1.934485
  N    -0.787025  3.523720  0.935461
  N    -0.906998  7.285028  0.905954
  N    -1.294998  3.089282  4.840420
  N    -1.142986  7.593787  4.922010
  S    -2.157799  2.951044  3.350792
  S    -2.161657  7.421637  3.624052
  S     0.762502  3.920670  0.627274
  S     0.604606  7.523925  0.445744
  S     0.311900  3.395432  4.698780
  S     0.476888  7.634052  4.619847
