16  
    
  C     3.060743  5.047701  3.350608
  C     3.094334  8.999178  3.912062
  C     1.823684  4.832676  2.578511
  C     1.891212  8.543896  3.351962
  N     4.133509  5.182434  2.556067
  N     3.999954  9.172248  2.952609
  N     2.078452  4.502232  1.292116
  N     1.815553  8.320102  2.030622
  N     1.111230  5.050800  5.098537
  N     1.278580  8.910605  5.777080
  S     0.459930  4.622573  3.619524
  S     0.490981  8.631169  4.349177
  S     3.653831  4.804331  0.970399
  S     3.288185  8.705532  1.453244
  S     2.765487  5.259722  5.073253
  S     2.858955  9.372210  5.672340
