16  
    
  C     1.385261  4.575268  3.324580
  C     1.461106  8.038968  3.097917
  C     0.091684  4.173237  2.939959
  C     0.155576  7.843879  2.426254
  N     2.266592  4.707723  2.365201
  N     2.536487  7.946942  2.318522
  N    -0.005208  3.916419  1.649644
  N     0.266689  7.710750  1.097876
  N    -0.089172  4.506592  5.454522
  N    -0.389345  8.002460  4.911125
  S    -1.137410  4.120524  4.163685
  S    -1.238489  7.854319  3.485821
  S     1.502629  4.305958  0.928710
  S     1.946208  7.673598  0.840840
  S     1.515898  4.676384  5.040971
  S     1.273595  8.117580  4.821244
