16  
    
  C    -2.557195  2.107602  2.013898
  C    -2.487942  5.812986  2.084090
  C    -3.830203  1.872043  1.351308
  C    -3.691983  5.390439  1.423326
  N    -1.522273  2.173600  1.181749
  N    -1.326042  5.755753  1.365179
  N    -3.730396  1.596226  0.026632
  N    -3.477597  5.098578  0.167743
  N    -4.252386  2.236464  3.896653
  N    -4.452373  5.891872  3.762963
  S    -5.126748  2.072563  2.538060
  S    -5.154491  5.278215  2.394892
  S    -2.122934  1.744656 -0.339509
  S    -1.824034  5.386985 -0.160165
  S    -2.603787  2.340960  3.752604
  S    -2.779110  6.005927  3.795896
