16  
    
  C     3.461709  5.415061  3.574184
  C     3.465733  8.967992  3.492160
  C     2.267994  4.919654  2.945461
  C     2.356521  8.374877  2.800230
  N     4.557260  5.449386  2.797813
  N     4.476492  9.498753  2.723842
  N     2.351663  4.886964  1.642560
  N     2.574907  8.438143  1.464560
  N     1.791473  4.923267  5.392971
  N     1.820147  8.691796  5.375880
  S     0.932350  4.705892  4.010459
  S     1.056449  8.099849  4.049719
  S     3.881505  5.307928  1.252577
  S     4.081651  9.103490  1.176391
  S     3.422870  5.400181  5.299227
  S     3.299049  9.359957  5.204712
