16  
    
  C     2.370632  4.667755  3.408400
  C     2.554337  8.643689  3.508999
  C     1.194448  4.289770  2.668992
  C     1.283249  8.276511  2.968647
  N     3.372443  5.125246  2.692954
  N     3.517792  8.852150  2.591515
  N     1.468361  4.082144  1.396035
  N     1.278844  8.193657  1.661192
  N     0.596001  4.267482  5.161869
  N     0.856618  8.606635  5.495456
  S    -0.100147  3.952974  3.712500
  S     0.046388  8.106447  4.089842
  S     2.965503  4.765151  1.123424
  S     2.797389  8.512412  1.068190
  S     2.202047  4.803793  5.087324
  S     2.468345  8.901943  5.222002
