16  
    
  C    -6.009782  0.910062  1.334514
  C    -6.009407  4.481779  1.651800
  C    -7.252637  0.490838  0.649631
  C    -7.231389  3.893810  0.938664
  N    -4.944763  1.119637  0.546890
  N    -5.051369  4.780708  0.788051
  N    -7.151985  0.481924 -0.680187
  N    -7.132355  3.916809 -0.382161
  N    -7.740794  0.262737  3.192559
  N    -7.731497  3.879367  3.482939
  S    -8.608516  0.171595  1.765462
  S    -8.415266  3.273750  2.075688
  S    -5.556289  0.810328 -0.999587
  S    -5.616061  4.467982 -0.761418
  S    -6.165485  0.677304  3.069969
  S    -6.092087  4.217672  3.432631
