16  
    
  C     2.967214  4.888867  3.696526
  C     2.797372  8.904207  3.298137
  C     1.633838  4.972770  3.109580
  C     1.564518  8.457479  2.717129
  N     3.942049  4.893135  2.778604
  N     3.909818  8.803568  2.597028
  N     1.604031  4.888963  1.788202
  N     1.781797  7.957314  1.520880
  N     1.264391  5.548664  5.606030
  N     1.166418  8.764127  5.224939
  S     0.371790  5.300227  4.217095
  S     0.241238  8.526891  3.893202
  S     3.168114  4.762807  1.263660
  S     3.412535  8.164656  1.095147
  S     2.920922  5.380161  5.389162
  S     2.753826  9.014751  5.025931
