16  
    
  C    -3.379288  1.810884  1.601318
  C    -3.755076  5.555117  1.689920
  C    -4.570762  1.185242  0.958743
  C    -4.928931  5.017554  0.995453
  N    -2.323633  1.862621  0.802969
  N    -2.735389  5.729405  0.855231
  N    -4.433245  0.896244 -0.321027
  N    -4.809731  4.904516 -0.325396
  N    -5.095223  1.448545  3.571203
  N    -5.529155  5.225716  3.539301
  S    -5.863876  0.850080  2.174823
  S    -6.224482  4.810361  2.057841
  S    -2.845310  1.245032 -0.743119
  S    -3.301047  5.452211 -0.643739
  S    -3.563768  2.130666  3.315228
  S    -3.869414  5.591931  3.457759
