16  
    
  C    -1.722418  2.284961  1.941630
  C    -1.743702  6.358527  2.112935
  C    -3.019899  2.035103  1.256713
  C    -2.862238  5.768494  1.408892
  N    -0.711293  2.492768  1.122816
  N    -0.660379  6.475869  1.342511
  N    -2.892834  1.919776 -0.050366
  N    -2.747305  5.612815  0.086849
  N    -3.509439  2.306482  3.774435
  N    -3.611296  6.201034  3.938232
  S    -4.290643  1.866986  2.387942
  S    -4.204153  5.567839  2.534227
  S    -1.307757  2.211040 -0.434704
  S    -1.135850  5.895887 -0.128270
  S    -1.846278  2.383418  3.681501
  S    -2.103369  6.838743  3.776121
