16  
    
  C    -4.163373  1.523739  1.926302
  C    -4.029990  5.263545  1.857158
  C    -5.376107  0.963070  1.363716
  C    -5.286475  4.640600  1.270443
  N    -3.224031  1.715754  1.001501
  N    -3.064830  5.365918  0.943563
  N    -5.248911  0.517497  0.091902
  N    -5.181282  4.219647  0.027480
  N    -5.945049  1.728292  3.712364
  N    -5.776211  5.202561  3.605782
  S    -6.707566  0.928802  2.463863
  S    -6.601947  4.561234  2.339019
  S    -3.808820  1.049650 -0.387899
  S    -3.651636  4.619291 -0.446636
  S    -4.312913  2.101547  3.521929
  S    -4.166849  5.662081  3.519492
