16  
    
  C    -3.824380  2.016067  1.907812
  C    -3.506721  5.401098  1.906619
  C    -4.660685  1.014388  1.295933
  C    -4.758404  4.929970  1.369387
  N    -2.770953  2.347584  1.187000
  N    -2.562617  5.561303  0.948723
  N    -4.430832  0.757460  0.010336
  N    -4.786667  4.699556  0.065758
  N    -5.426854  1.327895  3.646798
  N    -5.227395  5.398174  3.868971
  S    -5.974102  0.493884  2.328657
  S    -6.063096  4.962805  2.523440
  S    -3.057054  1.634700 -0.317752
  S    -3.209920  5.005920 -0.431496
  S    -4.179171  2.452813  3.565603
  S    -3.684044  5.781203  3.619763
