16  
    
  C     0.089508  3.562872  2.675232
  C     0.321620  7.492934  2.668802
  C    -1.095125  3.060538  1.997199
  C    -0.931317  7.209256  2.024609
  N     1.159084  3.797105  1.894288
  N     1.354005  7.587277  1.829091
  N    -0.831739  2.694498  0.719449
  N    -0.884411  7.203975  0.707806
  N    -1.775561  3.242881  4.471772
  N    -1.505120  7.221994  4.508750
  S    -2.338001  2.515719  3.117643
  S    -2.261310  7.162710  3.081889
  S     0.657551  3.322815  0.378947
  S     0.728901  7.436594  0.243744
  S    -0.222247  3.962695  4.357408
  S     0.144210  7.472376  4.444665
