16  
    
  C    -4.394821  1.410604  1.936645
  C    -4.666938  4.738704  1.657556
  C    -5.609395  0.870580  1.319237
  C    -5.788452  4.375771  0.804989
  N    -3.511224  1.798074  1.047192
  N    -3.630774  5.235456  0.968212
  N    -5.566377  0.752655 -0.012012
  N    -5.515496  4.502902 -0.511447
  N    -6.088070  0.825700  3.823398
  N    -6.454264  3.850925  3.330752
  S    -6.838885  0.244836  2.466074
  S    -7.141278  3.747936  1.794186
  S    -4.013047  1.376299 -0.515879
  S    -3.920937  5.040065 -0.645045
  S    -4.487908  1.223779  3.665156
  S    -4.932706  4.656918  3.388413
