16  
    
  C    -1.830706  2.530900  2.517931
  C    -1.670141  5.795217  2.415147
  C    -3.085952  2.218399  1.797184
  C    -2.901981  5.534840  1.611323
  N    -0.807173  2.581001  1.679335
  N    -0.611957  6.082042  1.649592
  N    -3.008062  2.343586  0.483879
  N    -2.716375  5.552830  0.308352
  N    -3.646378  2.294642  4.313320
  N    -3.616712  5.687556  4.046653
  S    -4.457956  1.981154  2.892924
  S    -4.349342  5.308896  2.544554
  S    -1.399872  2.384371  0.133708
  S    -1.125920  5.905749  0.119283
  S    -1.990341  2.513043  4.182211
  S    -1.962985  5.964735  4.127919
