16  
    
  C    -5.528370  0.907403  1.438256
  C    -5.401985  4.965978  1.187479
  C    -6.773541  0.406450  0.785240
  C    -6.566632  4.312739  0.654490
  N    -4.476323  1.047629  0.657862
  N    -4.403553  5.196229  0.348018
  N    -6.673022  0.254309 -0.527090
  N    -6.560131  4.143741 -0.657001
  N    -7.361684  0.876611  3.234916
  N    -6.834711  4.342194  3.235647
  S    -8.090975  0.190899  1.938028
  S    -7.762678  3.909766  1.948081
  S    -5.047290  0.606083 -0.866529
  S    -5.042440  4.643005 -1.086244
  S    -5.687156  1.011758  3.213475
  S    -5.357884  5.017409  2.902292
