16  
    
  C    -0.305557  3.441357  2.967689
  C    -0.891582  6.878634  2.736319
  C    -1.529162  2.991227  2.311117
  C    -1.975392  6.299684  1.895399
  N     0.594638  3.805283  2.054526
  N     0.216302  7.014664  2.021615
  N    -1.398712  2.658316  1.032211
  N    -1.643769  6.139405  0.607724
  N    -2.265277  3.309366  4.800607
  N    -2.869540  6.455238  4.345176
  S    -2.958720  2.870051  3.289798
  S    -3.424541  6.048456  2.860527
  S     0.138241  3.120281  0.609550
  S    -0.015638  6.631541  0.421436
  S    -0.614562  3.737967  4.641591
  S    -1.350700  7.003147  4.446419
