16  
    
  C    -4.397649  1.446848  1.947929
  C    -4.662579  4.752142  1.639314
  C    -5.592994  0.831170  1.335859
  C    -5.764648  4.367842  0.796257
  N    -3.492762  1.808913  1.044273
  N    -3.617242  5.239763  0.981787
  N    -5.585809  0.758417 -0.003378
  N    -5.503460  4.485414 -0.528716
  N    -6.078642  0.844534  3.853996
  N    -6.428824  3.853673  3.329053
  S    -6.835838  0.245100  2.460960
  S    -7.136919  3.748843  1.792170
  S    -4.029093  1.382103 -0.483999
  S    -3.930984  5.040108 -0.611851
  S    -4.472761  1.249887  3.640868
  S    -4.919296  4.681059  3.394455
