16  
    
  C     1.920230  5.042011  3.089544
  C     2.197241  8.641482  3.193349
  C     0.775072  4.509467  2.357465
  C     1.022816  8.119760  2.542229
  N     2.961764  5.466777  2.371185
  N     3.225331  8.948830  2.405271
  N     1.075737  4.223235  1.075501
  N     1.187341  7.878566  1.242006
  N    -0.018523  4.810825  4.851884
  N     0.448576  8.091413  5.055568
  S    -0.583315  4.083912  3.345092
  S    -0.291238  7.738066  3.575699
  S     2.657852  4.785702  0.854523
  S     2.714989  8.521640  0.851255
  S     1.656179  5.267817  4.836735
  S     2.088828  8.512556  4.959603
