16  
    
  C    -1.824325  2.352282  2.022713
  C    -1.857687  6.048818  2.122706
  C    -2.963686  1.966472  1.258270
  C    -3.046196  5.710418  1.432827
  N    -0.741456  2.362692  1.267644
  N    -0.852737  6.333984  1.289736
  N    -2.824127  1.840877 -0.051571
  N    -2.956672  5.534686  0.134347
  N    -3.674387  2.013546  3.796456
  N    -3.568664  5.869742  4.030740
  S    -4.412569  1.881389  2.299836
  S    -4.410603  5.736930  2.591779
  S    -1.205290  2.109787 -0.302727
  S    -1.285454  5.852398 -0.220693
  S    -2.027062  2.407344  3.748668
  S    -1.985007  6.274656  3.793144
