16  
    
  C    -2.955715  2.170284  1.795751
  C    -2.954329  5.833643  1.983550
  C    -4.078400  1.549093  1.090365
  C    -4.203225  5.401732  1.387547
  N    -1.949518  2.585638  1.046602
  N    -2.026663  6.141780  1.087206
  N    -3.881292  1.511619 -0.216214
  N    -4.162651  5.297468  0.080572
  N    -4.841591  1.676053  3.603204
  N    -4.548267  5.779575  4.042620
  S    -5.471980  1.338183  2.085698
  S    -5.394577  5.229885  2.657257
  S    -2.459469  2.301928 -0.514946
  S    -2.547453  5.696760 -0.385379
  S    -3.285891  2.323614  3.490342
  S    -2.962108  6.122026  3.752102
