16  
    
  C     1.671954  4.620978  3.374626
  C     1.342543  8.159839  3.064104
  C     0.466149  4.062522  2.777602
  C     0.308179  7.404129  2.395699
  N     2.726914  4.507223  2.531391
  N     2.288392  8.503879  2.211253
  N     0.499868  3.836378  1.427010
  N     0.539132  7.164889  1.117553
  N     0.014852  4.586718  5.386398
  N    -0.379765  7.574309  4.890610
  S    -0.831638  4.300047  3.949079
  S    -1.004431  7.065513  3.459481
  S     2.074557  3.999498  1.114816
  S     1.903269  7.947941  0.655614
  S     1.654546  4.856906  5.091295
  S     1.189325  8.201593  4.776562
