16  
    
  C     0.977668  4.069187  2.704088
  C     1.111042  7.608694  3.068877
  C    -0.294673  3.465905  2.350397
  C    -0.141554  7.117290  2.470777
  N     1.990794  3.927688  1.890648
  N     2.164487  7.650361  2.265367
  N    -0.289605  2.997901  1.128583
  N    -0.031720  6.876627  1.165867
  N    -0.669911  4.199932  4.747469
  N    -0.602022  7.401535  5.049601
  S    -1.539258  3.364435  3.555369
  S    -1.512114  7.083870  3.643784
  S     1.239823  3.265264  0.488397
  S     1.547434  7.111754  0.767447
  S     0.915041  4.475695  4.407003
  S     0.956822  8.009891  4.774890
