16  
    
  C     3.610719  5.469416  3.594095
  C     3.426042  9.184066  3.655013
  C     2.428855  4.981452  2.915221
  C     2.308475  8.645728  2.910545
  N     4.670570  5.622642  2.779208
  N     4.443880  9.404810  2.783052
  N     2.496833  5.035762  1.597862
  N     2.396632  8.378506  1.602800
  N     1.772746  5.325895  5.438415
  N     1.559205  8.568520  5.313135
  S     1.060497  4.920391  4.026823
  S     0.954665  8.187060  3.846814
  S     4.053939  5.374088  1.178956
  S     3.928724  8.943632  1.203168
  S     3.408995  5.446934  5.337833
  S     3.118855  9.177172  5.412541
