16  
    
  C    -1.260951  3.448354  2.101820
  C    -1.049629  7.063636  2.652097
  C    -2.402489  2.717863  1.646443
  C    -2.349833  6.906623  1.988687
  N    -0.308407  3.688384  1.200680
  N    -0.029750  7.262755  1.790581
  N    -2.383721  2.556287  0.319225
  N    -2.312356  6.754066  0.632549
  N    -2.736236  2.917913  4.185066
  N    -2.790806  6.604287  4.453588
  S    -3.599477  2.401194  2.818718
  S    -3.663111  6.644217  3.062646
  S    -0.963930  3.179508 -0.251268
  S    -0.730398  6.850165  0.333241
  S    -1.149553  3.438654  3.856609
  S    -1.180909  7.024993  4.344519
