16  
    
  C     0.939752  3.827411  2.522351
  C     1.545398  8.052952  3.277200
  C    -0.289289  3.525705  1.913356
  C     0.270352  7.866065  2.670775
  N     1.935583  4.002810  1.658183
  N     2.576538  8.127506  2.430713
  N    -0.200828  3.265451  0.595356
  N     0.266742  7.873025  1.347943
  N    -0.842301  3.548248  4.446262
  N    -0.171449  7.896888  5.175015
  S    -1.639090  3.185432  3.015027
  S    -1.059735  7.915998  3.774322
  S     1.332666  3.707982  0.164255
  S     1.916344  8.011087  0.966233
  S     0.708686  4.130234  4.205896
  S     1.471853  8.059224  5.005883
