16  
    
  C     0.735155  3.660107  3.170886
  C     1.179485  7.569309  2.905700
  C    -0.496640  3.458401  2.484679
  C     0.018840  7.005756  2.225480
  N     1.699904  4.103226  2.325619
  N     2.253970  7.628152  2.112677
  N    -0.352126  3.350949  1.147839
  N     0.225086  6.754494  0.924082
  N    -0.999259  3.252275  5.025933
  N    -0.774408  7.530536  4.591021
  S    -1.794039  3.071361  3.613029
  S    -1.393579  6.855852  3.162159
  S     1.219395  3.691804  0.848931
  S     1.795714  7.176668  0.625493
  S     0.630980  3.651180  4.898310
  S     0.836787  7.958722  4.540703
