16  
    
  C     1.113049  4.483382  3.037240
  C     1.727696  8.428703  2.932639
  C     0.010965  3.906138  2.398064
  C     0.434496  8.144755  2.313309
  N     2.195769  4.625678  2.248155
  N     2.798897  8.342745  2.105688
  N     0.140788  3.929834  1.084300
  N     0.468528  7.976449  0.982989
  N    -0.689297  4.090584  4.838268
  N    -0.073007  8.362508  4.896496
  S    -1.399237  3.642314  3.347801
  S    -0.894201  8.033212  3.462419
  S     1.674582  4.402434  0.704581
  S     2.122722  8.022015  0.638174
  S     0.948620  4.404437  4.738991
  S     1.544106  8.723667  4.698261
