16  
    
  C    -4.662227  0.861617  1.405316
  C    -4.847558  4.570085  1.822170
  C    -5.929868  0.629030  0.757710
  C    -6.054767  4.356117  1.095623
  N    -3.608632  1.019694  0.640097
  N    -3.805824  4.718291  1.060207
  N    -5.755953  0.752181 -0.563368
  N    -5.905056  4.275212 -0.220147
  N    -6.509134  0.810059  3.285259
  N    -6.541266  4.411408  3.638458
  S    -7.358366  0.691437  1.776391
  S    -7.406459  4.203054  2.181203
  S    -4.172332  0.975388 -0.908084
  S    -4.244975  4.550077 -0.508685
  S    -4.839308  1.049251  3.095758
  S    -4.899688  4.751946  3.519891
