16  
    
  C    -0.286687  3.103525  2.643813
  C    -0.306482  7.040452  2.390919
  C    -1.517921  2.730649  2.062232
  C    -1.321403  6.251179  1.901345
  N     0.587638  3.508230  1.710286
  N     0.692940  7.228849  1.538681
  N    -1.505065  2.468967  0.752336
  N    -1.202228  5.916054  0.622180
  N    -1.923592  2.895741  4.597617
  N    -1.967951  6.775597  4.262991
  S    -2.806188  2.515657  3.209409
  S    -2.613174  5.900244  2.960630
  S     0.034538  2.899209  0.251991
  S     0.180357  6.622929  0.117681
  S    -0.339071  3.320197  4.420695
  S    -0.441811  7.389539  4.071851
