16  
    
  C     3.211153  4.963549  3.487374
  C     3.305890  9.229332  3.754264
  C     1.977792  4.628051  2.771225
  C     2.166277  8.863158  2.971979
  N     4.233820  5.153497  2.674061
  N     4.493913  9.230660  3.116288
  N     2.087886  4.539756  1.454876
  N     2.471368  8.613892  1.642450
  N     1.389771  5.144239  5.209302
  N     1.405218  8.919004  5.500041
  S     0.576357  4.601949  3.795743
  S     0.666720  8.789014  3.990514
  S     3.738001  4.794340  1.125563
  S     4.134774  9.013107  1.504469
  S     3.048750  5.237738  5.169836
  S     3.121282  9.252712  5.399013
