16  
    
  C    -0.206184  3.020910  2.634115
  C    -0.223734  7.016548  2.379299
  C    -1.545495  2.691055  2.059475
  C    -1.276876  6.273527  1.738419
  N     0.735461  3.321544  1.729713
  N     0.729240  7.373864  1.505812
  N    -1.448250  2.462632  0.755932
  N    -1.114322  6.158484  0.409640
  N    -1.869154  2.892633  4.576760
  N    -1.942049  6.561263  4.268341
  S    -2.759562  2.382522  3.279487
  S    -2.612326  5.965471  2.854985
  S     0.064584  2.984307  0.251807
  S     0.391071  6.779978 -0.002508
  S    -0.324713  3.373350  4.297883
  S    -0.433005  7.186512  4.090504
