16  
    
  C     0.730602  3.730812  3.186467
  C     1.235466  7.540612  2.873207
  C    -0.513658  3.407659  2.521614
  C     0.004003  7.026419  2.163732
  N     1.716223  4.099392  2.365211
  N     2.317569  7.660351  2.083970
  N    -0.343809  3.356355  1.180433
  N     0.209218  6.768974  0.883433
  N    -0.999632  3.243009  5.032315
  N    -0.767068  7.467648  4.577982
  S    -1.839199  3.022111  3.570981
  S    -1.406698  6.823275  3.155158
  S     1.238734  3.729457  0.868057
  S     1.784937  7.174492  0.596134
  S     0.581463  3.630145  4.864502
  S     0.813571  7.957690  4.552880
