16  
    
  C    -0.680311  2.879660  2.627172
  C    -1.333477  6.609318  2.537932
  C    -1.933080  2.624534  1.978715
  C    -2.437116  5.984145  1.819694
  N     0.323034  3.095182  1.770204
  N    -0.279045  6.823819  1.761403
  N    -1.847228  2.379059  0.658891
  N    -2.179600  5.715199  0.517953
  N    -2.597531  2.935661  4.466851
  N    -2.947318  5.937886  4.303188
  S    -3.355012  2.480391  2.990552
  S    -3.738653  5.604568  2.870808
  S    -0.269549  2.675927  0.246063
  S    -0.719510  6.382748  0.254594
  S    -0.911747  3.292082  4.292590
  S    -1.418451  6.555666  4.209696
