16  
    
  C     1.268029  4.694329  3.259278
  C     1.458636  7.984324  3.129946
  C     0.030885  4.107582  2.776819
  C     0.220968  7.855032  2.433048
  N     2.196727  4.834503  2.324408
  N     2.507349  7.930178  2.328595
  N    -0.105339  3.977272  1.448017
  N     0.375883  7.562919  1.148694
  N    -0.170014  4.274766  5.402495
  N    -0.344727  8.068258  4.945445
  S    -1.114003  4.056790  4.056992
  S    -1.102258  8.110914  3.462672
  S     1.439661  4.313704  0.882593
  S     1.999917  7.669417  0.775710
  S     1.442955  4.652789  5.008682
  S     1.326860  8.115588  4.821545
