16  
    
  C    -1.737234  2.292600  1.897932
  C    -1.781667  6.360178  2.062677
  C    -3.011664  1.986347  1.280140
  C    -2.908753  5.793108  1.433915
  N    -0.693399  2.483993  1.112172
  N    -0.677380  6.500733  1.334483
  N    -2.904629  1.979180 -0.039813
  N    -2.734597  5.552496  0.082818
  N    -3.494091  2.333863  3.762060
  N    -3.597169  6.181201  3.961223
  S    -4.291164  1.852832  2.422003
  S    -4.201495  5.560449  2.561178
  S    -1.319817  2.214079 -0.440221
  S    -1.095445  5.901731 -0.134707
  S    -1.837751  2.393420  3.676678
  S    -2.120523  6.874665  3.782544
