16  
    
  C     0.256341  3.650158  2.908013
  C     0.383565  7.506797  2.795908
  C    -0.900837  3.256981  2.111678
  C    -0.940862  7.492675  2.237093
  N     1.275825  3.934327  2.093988
  N     1.288716  7.635150  1.857024
  N    -0.737737  3.043809  0.816146
  N    -1.024107  7.565653  0.930288
  N    -1.558103  3.050715  4.639028
  N    -1.345538  7.487512  4.748771
  S    -2.219660  2.786928  3.160469
  S    -2.222025  7.395098  3.357041
  S     0.796979  3.667592  0.540692
  S     0.609393  7.554971  0.314814
  S     0.096384  3.493970  4.638408
  S     0.342268  7.597344  4.533863
