16  
    
  C     1.940462  4.133285  3.167830
  C     1.842135  7.915448  3.084229
  C     0.605743  3.934635  2.583370
  C     0.642827  7.472544  2.433207
  N     2.923187  4.368838  2.284442
  N     2.829097  8.262616  2.267843
  N     0.661958  3.898280  1.277572
  N     0.783514  7.404417  1.121013
  N     0.148885  4.269082  5.177957
  N     0.200627  7.445468  4.967578
  S    -0.768569  4.054177  3.716837
  S    -0.627145  7.092242  3.579707
  S     2.181338  4.078639  0.841507
  S     2.226757  8.061273  0.726415
  S     1.805896  4.223439  4.926952
  S     1.839184  7.836998  4.769874
