16  
    
  C    -4.146193  1.517369  1.879636
  C    -3.936248  5.219996  1.974692
  C    -5.452836  1.130311  1.353121
  C    -5.167521  4.630249  1.396326
  N    -3.107034  1.490153  1.050475
  N    -2.870317  5.173161  1.190589
  N    -5.344112  0.924760  0.063161
  N    -5.075387  4.299110  0.107400
  N    -5.824542  1.431334  3.867882
  N    -5.666179  5.368300  3.801380
  S    -6.693052  0.980467  2.474114
  S    -6.437477  4.708440  2.488153
  S    -3.817447  1.101580 -0.364200
  S    -3.465596  4.486866 -0.217708
  S    -4.206871  1.787153  3.567854
  S    -4.052891  5.737857  3.557916
