16  
    
  C    -0.907137  3.156256  2.476034
  C    -0.602159  6.573334  2.413994
  C    -2.100499  2.728787  1.835708
  C    -1.851173  6.215832  1.759587
  N     0.131905  3.072129  1.641867
  N     0.378574  6.796390  1.555331
  N    -2.092618  2.674538  0.480480
  N    -1.732509  5.989213  0.456725
  N    -2.636903  3.027915  4.345299
  N    -2.542107  6.340483  4.186535
  S    -3.445988  2.684051  2.958642
  S    -3.260412  6.037037  2.747758
  S    -0.489014  2.806956  0.111581
  S    -0.078289  6.191130  0.059814
  S    -1.042072  3.389985  4.191810
  S    -0.917981  6.650012  4.163804
