16  
    
  C     2.279013  4.332929  3.051404
  C     1.916913  8.329461  3.104192
  C     1.035668  4.119178  2.280020
  C     0.764563  7.653472  2.569198
  N     3.416782  4.378841  2.336961
  N     3.010468  8.310716  2.344501
  N     1.347332  3.710817  1.063848
  N     1.019552  7.194417  1.349723
  N     0.206143  4.442402  4.651252
  N     0.131723  8.596945  4.845469
  S    -0.357117  3.821696  3.233588
  S    -0.510921  7.556615  3.728921
  S     2.893783  3.984636  0.824571
  S     2.584232  7.528715  0.933778
  S     1.883290  4.658219  4.760922
  S     1.692676  9.048138  4.637348
