16  
    
  C     2.585001  4.967485  3.563124
  C     2.261350  8.679677  3.387721
  C     1.416379  4.293401  3.060711
  C     1.200146  7.863787  2.808862
  N     3.500334  5.255545  2.635230
  N     3.256059  9.048338  2.570044
  N     1.572232  3.930543  1.781768
  N     1.479630  7.643476  1.498684
  N     0.876034  4.693794  5.538217
  N     0.551144  8.472093  5.309345
  S     0.041570  4.247494  4.079512
  S    -0.103011  7.561511  3.982726
  S     2.899418  4.680545  1.223777
  S     2.970788  8.311379  1.170713
  S     2.482032  5.297194  5.299384
  S     2.052008  9.154174  5.059824
