16  
    
  C    -5.385144  1.007483  1.735597
  C    -5.123240  4.674278  1.398697
  C    -6.620190  0.773551  1.067112
  C    -6.375667  4.274085  0.805345
  N    -4.323319  1.053471  0.929095
  N    -4.095655  4.762994  0.548664
  N    -6.493362  0.552604 -0.272891
  N    -6.250623  4.094224 -0.505005
  N    -7.116816  1.005444  3.530836
  N    -7.002099  5.104247  3.119829
  S    -7.977436  0.638360  2.154442
  S    -7.788403  4.495369  1.744043
  S    -4.924831  0.811499 -0.592760
  S    -4.688128  4.429387 -0.961671
  S    -5.529872  1.335625  3.460881
  S    -5.367110  5.208695  3.035362
