16  
    
  C    -2.664041  2.480259  2.313633
  C    -2.718759  6.546594  1.975920
  C    -3.779711  1.868775  1.683294
  C    -3.780426  5.832304  1.228016
  N    -1.779281  2.903518  1.438788
  N    -1.642484  6.753569  1.225002
  N    -3.727978  1.681051  0.387237
  N    -3.485582  5.527183 -0.042162
  N    -4.390602  2.219791  4.173302
  N    -4.525952  5.752442  3.729792
  S    -5.100621  1.608920  2.794011
  S    -5.159738  5.343446  2.216652
  S    -2.296793  2.383795 -0.076802
  S    -2.027965  6.142469 -0.327816
  S    -2.861505  2.886407  4.002118
  S    -2.983702  6.384488  3.693879
