16  
    
  C     1.899432  4.551904  3.348899
  C     1.422905  8.157245  3.052154
  C     0.664161  4.132496  2.761464
  C     0.429280  7.312835  2.442069
  N     2.868760  4.700951  2.485521
  N     2.295935  8.611863  2.160945
  N     0.738566  3.659526  1.533805
  N     0.598601  7.107295  1.138908
  N     0.124342  4.553753  5.202350
  N    -0.300650  7.570368  4.793546
  S    -0.769327  4.198953  3.841895
  S    -0.939625  6.960659  3.410975
  S     2.306910  4.073283  0.979228
  S     1.960511  7.924671  0.698304
  S     1.730191  4.856912  5.039393
  S     1.209638  8.231527  4.734547
