16  
    
  C     3.163239  5.188470  3.438533
  C     3.568471  9.210267  3.334297
  C     2.007005  4.635243  2.815764
  C     2.373821  8.604661  2.761415
  N     4.184591  5.557982  2.664318
  N     4.592438  9.339710  2.541378
  N     2.131243  4.561662  1.492490
  N     2.587774  8.389316  1.463519
  N     1.414596  5.143851  5.296707
  N     2.085435  8.819244  5.410688
  S     0.720141  4.414716  3.991243
  S     1.182749  8.332964  4.117946
  S     3.621938  5.141212  1.135502
  S     4.081093  8.906554  1.026329
  S     3.040681  5.384155  5.144956
  S     3.556917  9.461825  5.066468
