16  
    
  C    -1.734671  2.397503  2.000368
  C    -1.878095  6.480952  2.143360
  C    -3.060687  2.094934  1.406066
  C    -2.886765  5.545772  1.664594
  N    -0.772113  2.552521  1.121781
  N    -0.946105  6.797868  1.242993
  N    -3.016866  1.960040  0.088659
  N    -2.660527  5.147834  0.372869
  N    -3.411419  2.090023  3.968349
  N    -3.566891  6.126637  4.109602
  S    -4.312005  1.874777  2.595024
  S    -4.209122  5.420085  2.743303
  S    -1.421419  2.149987 -0.375309
  S    -1.292767  5.885408 -0.120955
  S    -1.814878  2.604984  3.718817
  S    -2.154666  6.990407  3.862981
