16  
    
  C     1.719088  4.594029  3.334883
  C     1.371718  8.177741  3.033717
  C     0.528653  4.049609  2.788202
  C     0.325475  7.415758  2.393348
  N     2.746788  4.565031  2.487562
  N     2.328244  8.572399  2.183493
  N     0.567774  3.820208  1.437694
  N     0.567629  7.104118  1.109491
  N     0.021940  4.572779  5.359567
  N    -0.379785  7.557238  4.884290
  S    -0.834131  4.302874  3.935378
  S    -0.994441  7.028748  3.444543
  S     2.132479  4.001538  1.106029
  S     1.893442  7.939464  0.667174
  S     1.670559  4.855081  5.081703
  S     1.195956  8.204719  4.787530
