16  
    
  C    -5.356095  1.164232  1.687882
  C    -5.122512  4.735249  1.399855
  C    -6.673618  0.818549  1.055662
  C    -6.358405  4.312602  0.766749
  N    -4.271445  1.051030  0.919944
  N    -4.079986  4.734436  0.582438
  N    -6.607834  0.686288 -0.241429
  N    -6.318308  4.064268 -0.536542
  N    -7.185111  0.989585  3.510003
  N    -7.003684  5.155862  3.095064
  S    -8.023782  0.671493  2.134058
  S    -7.769605  4.494395  1.776216
  S    -4.937657  0.769593 -0.622784
  S    -4.758566  4.367549 -0.910359
  S    -5.535723  1.302856  3.408086
  S    -5.307869  5.167738  3.103553
