16  
    
  C     0.907620  3.698704  3.072046
  C     1.162348  7.585777  2.974396
  C    -0.411797  3.472515  2.537545
  C    -0.000403  7.041925  2.316192
  N     1.869567  3.826263  2.118887
  N     2.200375  7.717561  2.155184
  N    -0.352408  3.197731  1.222410
  N     0.200095  6.713373  1.044669
  N    -0.839273  3.444272  5.021048
  N    -0.758780  7.698539  4.708219
  S    -1.713696  3.264410  3.650476
  S    -1.470907  6.990502  3.368944
  S     1.132992  3.570513  0.706332
  S     1.798708  7.105524  0.695529
  S     0.798247  3.917657  4.778660
  S     0.877120  7.956364  4.654453
