16  
    
  C     2.871255  5.286328  3.235881
  C     2.860748  9.137774  3.455018
  C     1.764152  4.526537  2.735719
  C     1.753405  8.475385  2.815242
  N     3.836424  5.544858  2.345246
  N     3.837233  9.501153  2.604426
  N     1.828654  4.333191  1.434996
  N     1.915620  8.300246  1.512196
  N     1.364232  4.617955  5.176695
  N     1.106344  8.466155  5.287339
  S     0.502495  4.180437  3.862081
  S     0.532777  7.847114  3.824351
  S     3.249121  4.908519  0.895928
  S     3.381691  8.956172  1.080562
  S     2.784474  5.521864  4.985554
  S     2.688010  9.138141  5.195973
