16  
    
  C    -3.623010  1.805827  1.837937
  C    -3.557304  5.623452  1.813967
  C    -4.676075  1.021545  1.256877
  C    -4.815703  5.275200  1.167451
  N    -2.695019  2.201138  0.973718
  N    -2.578056  5.867238  0.956364
  N    -4.360799  0.633612  0.015006
  N    -4.771957  5.283892 -0.155920
  N    -5.377955  1.501550  3.658094
  N    -5.356098  5.282977  3.732198
  S    -5.909223  0.645345  2.295541
  S    -6.131837  4.958139  2.243469
  S    -3.000392  1.471751 -0.403895
  S    -3.192588  5.545935 -0.590703
  S    -3.835592  2.220200  3.499238
  S    -3.800061  5.713030  3.488696
