16  
    
  C     3.267757  4.973107  3.478983
  C     3.429744  8.999640  3.798399
  C     2.029768  4.649948  2.802726
  C     2.240787  8.819778  3.045234
  N     4.302566  5.030746  2.617148
  N     4.525042  9.145397  3.013311
  N     2.113367  4.514551  1.473912
  N     2.428814  8.726476  1.680166
  N     1.316262  5.162640  5.268609
  N     1.495627  9.204696  5.447944
  S     0.637547  4.728468  3.863066
  S     0.805054  8.823609  4.018762
  S     3.669060  4.789732  1.095799
  S     4.049073  8.905380  1.440973
  S     2.949490  5.214403  5.196887
  S     3.088733  9.217869  5.507186
