16  
    
  C    -4.143199  1.616860  1.900347
  C    -3.966208  5.131652  1.955223
  C    -5.375444  1.086597  1.360255
  C    -5.105758  4.596407  1.390805
  N    -3.163605  1.567336  1.025210
  N    -2.921980  5.199310  1.145270
  N    -5.435932  0.815178  0.057450
  N    -4.965273  4.187006  0.145155
  N    -5.823970  1.522909  3.831597
  N    -5.678210  5.372129  3.786103
  S    -6.666846  0.963704  2.542008
  S    -6.475219  4.687717  2.463405
  S    -3.788243  1.064952 -0.419084
  S    -3.398724  4.574198 -0.252156
  S    -4.207004  1.829516  3.592681
  S    -4.011146  5.758766  3.555868
