16  
    
  C     0.855513  4.153313  2.544395
  C     1.502869  8.495804  3.130879
  C    -0.189708  3.405911  1.888459
  C     0.272998  8.217755  2.475295
  N     1.972915  4.351835  1.777607
  N     2.563907  8.558243  2.341708
  N    -0.062267  3.320432  0.551469
  N     0.371732  8.190769  1.133102
  N    -0.882327  3.731717  4.391149
  N    -0.184406  8.127464  5.082719
  S    -1.556121  3.150286  2.934521
  S    -1.030599  7.997747  3.665669
  S     1.482407  3.816601  0.260829
  S     1.938912  8.442623  0.741617
  S     0.629460  4.342768  4.231245
  S     1.405052  8.668882  4.854021
