16  
    
  C    -4.146745  1.415508  1.943013
  C    -3.937620  5.202682  1.938030
  C    -5.424331  1.204799  1.315579
  C    -5.146109  4.769297  1.391447
  N    -3.111085  1.468758  1.110776
  N    -2.881715  5.103885  1.137783
  N    -5.347846  0.943927  0.011097
  N    -5.098244  4.338772  0.131855
  N    -5.837933  1.386709  3.828355
  N    -5.659021  5.364471  3.821023
  S    -6.723215  1.003461  2.466930
  S    -6.472256  4.726811  2.544570
  S    -3.793572  1.125479 -0.419057
  S    -3.487640  4.438538 -0.262830
  S    -4.231381  1.761684  3.604601
  S    -4.113444  5.727743  3.611622
