16  
    
  C     2.033898  4.961265  3.203289
  C     2.009768  8.550299  3.300918
  C     0.900235  4.460539  2.426289
  C     0.777464  8.250261  2.624209
  N     3.078117  5.186874  2.436404
  N     3.087436  8.680295  2.535921
  N     1.082602  4.550976  1.118567
  N     0.960879  8.293304  1.278714
  N     0.172318  4.494899  4.825854
  N     0.323249  8.310094  5.145255
  S    -0.547020  4.193211  3.338503
  S    -0.494883  7.873599  3.787058
  S     2.644070  4.938046  0.852051
  S     2.561934  8.691950  0.989536
  S     1.674378  5.193494  4.940978
  S     1.896771  8.797649  4.971725
