16  
    
  C    -5.671369  0.868342  1.558876
  C    -5.899013  4.678252  1.320631
  C    -6.888074  0.515232  0.862316
  C    -7.116926  4.266799  0.676356
  N    -4.541589  1.003070  0.814404
  N    -4.838300  4.934108  0.533304
  N    -6.733049  0.244400 -0.448040
  N    -6.989774  4.089357 -0.670952
  N    -7.558769  0.528261  3.381784
  N    -7.568498  4.519362  3.199217
  S    -8.235275  0.216161  1.900800
  S    -8.373847  3.994117  1.827238
  S    -5.113001  0.586280 -0.731562
  S    -5.389026  4.498691 -0.959901
  S    -5.951679  1.062346  3.232603
  S    -5.902062  4.797802  3.069067
