16  
    
  C     3.135335  5.071694  3.422603
  C     3.220550  8.930922  3.795850
  C     1.859790  4.926990  2.784281
  C     1.889166  8.693105  3.301039
  N     4.174327  5.157108  2.596305
  N     4.087625  8.685804  2.769286
  N     1.942579  4.599127  1.488035
  N     1.731414  8.273842  2.037579
  N     1.306575  5.018564  5.248959
  N     1.594286  9.393112  5.738252
  S     0.566772  4.530978  3.854597
  S     0.640856  8.832483  4.492770
  S     3.528180  4.713689  1.072343
  S     3.210338  8.211602  1.426373
  S     2.968141  5.214423  5.125669
  S     3.221970  9.434350  5.480396
