16  
    
  C     3.102894  5.198420  3.392746
  C     3.204274  8.931520  3.607879
  C     1.989600  4.498263  2.749571
  C     1.993968  8.603509  2.890249
  N     4.179358  5.339968  2.638906
  N     4.317489  9.122799  2.941152
  N     2.150489  4.364955  1.464356
  N     2.159816  8.609693  1.594429
  N     1.293145  4.872131  5.158330
  N     1.477424  8.968885  5.448221
  S     0.659641  4.209829  3.739798
  S     0.665960  8.549668  4.065226
  S     3.699852  4.946995  1.117128
  S     3.875443  8.930571  1.355552
  S     2.870354  5.363317  5.086451
  S     3.080324  9.270834  5.289713
