16  
    
  C     2.013310  4.608515  3.278098
  C     1.578195  7.901342  3.059711
  C     0.859315  4.006388  2.651114
  C     0.346478  7.575380  2.303685
  N     3.022160  4.796567  2.412842
  N     2.694971  7.925333  2.320172
  N     0.900456  4.013095  1.313585
  N     0.552384  7.469140  0.993343
  N     0.346824  4.081876  5.195837
  N    -0.269088  7.601742  4.845147
  S    -0.423820  3.667792  3.799522
  S    -1.004226  7.221929  3.376902
  S     2.400366  4.448555  0.946989
  S     2.182279  7.727892  0.733973
  S     1.891947  4.801886  5.010842
  S     1.348989  7.882716  4.771907
