16  
    
  C     2.376943  4.885570  3.335367
  C     2.428594  8.658796  3.477346
  C     1.227907  4.253897  2.663408
  C     1.140354  8.335632  2.849564
  N     3.385753  5.169888  2.519467
  N     3.497775  8.714667  2.687268
  N     1.276557  4.253755  1.327531
  N     1.240783  8.274875  1.523193
  N     0.540055  4.217263  5.202339
  N     0.772820  8.754127  5.368389
  S    -0.155096  3.892245  3.727398
  S    -0.109705  8.078457  4.113990
  S     2.872533  4.694373  0.982964
  S     2.859196  8.657480  1.162628
  S     2.209451  4.720990  5.129724
  S     2.397160  8.993107  5.177606
