16  
    
  C     0.616200  3.614214  2.726957
  C     0.598944  7.653554  2.641401
  C    -0.641987  3.213811  2.118170
  C    -0.536491  7.043355  2.075350
  N     1.577331  3.785192  1.832086
  N     1.569450  8.019854  1.790083
  N    -0.710438  3.474831  0.804076
  N    -0.476312  6.861247  0.759577
  N    -1.070288  3.232385  4.692190
  N    -0.998706  7.243123  4.619289
  S    -1.911269  3.039793  3.287771
  S    -1.787340  6.642744  3.293349
  S     0.894112  3.639961  0.334899
  S     1.029315  7.600458  0.296002
  S     0.592136  3.498784  4.440472
  S     0.547547  7.786954  4.438014
