16  
    
  C     0.867642  3.805560  2.992391
  C     1.148592  7.659966  3.008162
  C    -0.377472  3.271143  2.439175
  C    -0.029267  7.123366  2.376038
  N     1.870185  3.832228  2.093855
  N     2.227218  7.703514  2.232201
  N    -0.440596  3.223025  1.088530
  N     0.092659  6.699902  1.112307
  N    -0.674159  3.732373  4.990548
  N    -0.710976  7.615311  4.840596
  S    -1.619972  3.347542  3.632483
  S    -1.419339  7.030217  3.439213
  S     1.182018  3.411040  0.604520
  S     1.650127  7.069954  0.755117
  S     0.866153  4.153304  4.671417
  S     0.899700  7.966618  4.718899
