16  
    
  C    -4.033772  1.395059  1.670948
  C    -4.062761  5.159697  1.962376
  C    -5.362099  1.328774  1.021475
  C    -5.275424  5.027039  1.262946
  N    -2.966514  1.346950  0.885063
  N    -3.030712  5.329269  1.122685
  N    -5.212657  1.111016 -0.274212
  N    -5.246568  5.203766 -0.043944
  N    -5.857032  1.594838  3.565321
  N    -5.876682  4.832540  3.756673
  S    -6.718630  1.319835  2.106540
  S    -6.680310  4.915460  2.280691
  S    -3.535710  1.121866 -0.678212
  S    -3.641048  5.366265 -0.399312
  S    -4.216105  1.678169  3.372189
  S    -4.268686  5.249513  3.684482
