16  
    
  C    -4.517469  0.965151  1.683168
  C    -4.780429  4.525912  1.531569
  C    -5.762211  0.616706  0.993392
  C    -5.969062  4.229363  0.798199
  N    -3.458074  1.181416  0.885048
  N    -3.706703  4.958690  0.829006
  N    -5.714196  0.767530 -0.319515
  N    -5.833504  4.468633 -0.517948
  N    -6.299424  0.663960  3.642338
  N    -6.649591  4.295890  3.368050
  S    -7.079143  0.513897  2.157415
  S    -7.367218  3.928659  1.962281
  S    -4.034019  1.275736 -0.671255
  S    -4.255504  4.967384 -0.725264
  S    -4.643291  1.042230  3.455553
  S    -5.001274  4.447882  3.288698
