16  
    
  C    -1.969075  2.556119  2.638718
  C    -1.711916  5.833695  2.323733
  C    -3.047374  1.975917  1.932084
  C    -2.930359  5.676162  1.669384
  N    -0.876280  2.694717  1.877840
  N    -0.676659  6.121727  1.465185
  N    -2.891319  1.786767  0.623877
  N    -2.900602  5.628295  0.322597
  N    -3.726532  2.099555  4.409076
  N    -3.537052  5.676065  4.202670
  S    -4.457732  1.792681  2.935643
  S    -4.275492  5.434197  2.743724
  S    -1.354464  2.339950  0.301857
  S    -1.327674  5.931870 -0.037469
  S    -2.113372  2.402849  4.382938
  S    -1.868038  5.794884  4.056140
