16  
    
  C     2.278335  4.426081  3.065318
  C     1.932972  8.393492  3.066369
  C     1.140403  3.949148  2.347401
  C     0.797127  7.673866  2.535771
  N     3.392879  4.450647  2.319700
  N     3.030008  8.355737  2.358182
  N     1.262214  3.722130  1.027477
  N     0.985952  7.122063  1.331312
  N     0.266458  4.388136  4.653402
  N     0.150573  8.649427  4.857754
  S    -0.364131  3.858157  3.270282
  S    -0.532019  7.597135  3.759922
  S     2.892329  3.955744  0.785272
  S     2.610297  7.611527  0.937502
  S     1.854838  4.595025  4.733091
  S     1.733408  9.063394  4.618033
