16  
    
  C     0.446249  3.763025  3.032299
  C     1.070905  7.485855  2.638508
  C    -0.513825  3.127523  2.192316
  C    -0.099115  6.995268  1.967446
  N     1.568074  4.159307  2.464172
  N     2.054502  7.962805  1.854937
  N    -0.166955  2.985130  0.907707
  N    -0.028881  6.957042  0.648431
  N    -1.423035  3.092145  4.575779
  N    -0.721251  6.925170  4.521247
  S    -1.855092  2.523068  3.098160
  S    -1.379881  6.546371  3.079005
  S     1.317445  3.833389  0.814916
  S     1.434873  7.650523  0.269980
  S     0.102015  3.818295  4.740282
  S     0.824518  7.544783  4.441451
