16  
    
  C     2.072214  4.630756  2.993764
  C     2.314226  8.600441  3.118183
  C     0.843819  4.266096  2.332864
  C     1.128795  8.120736  2.474653
  N     3.076677  4.966925  2.193277
  N     3.369272  8.615115  2.291154
  N     0.918706  4.081705  1.028928
  N     1.182150  7.781834  1.188403
  N     0.332335  4.375763  4.874697
  N     0.440547  8.408472  4.894695
  S    -0.479123  3.944864  3.452905
  S    -0.205317  7.765209  3.532077
  S     2.507168  4.518705  0.672602
  S     2.782195  8.184405  0.781174
  S     1.864364  4.921644  4.615491
  S     2.032624  8.873939  4.854268
