16  
    
  C    -1.464250  3.439135  2.018440
  C    -0.933539  6.856307  2.545182
  C    -2.541928  2.659213  1.458447
  C    -2.249750  6.807464  1.912314
  N    -0.450709  3.721249  1.183910
  N     0.078494  6.897726  1.676601
  N    -2.353590  2.516429  0.133762
  N    -2.281643  6.731250  0.568779
  N    -3.033731  2.804077  3.973766
  N    -2.734449  6.842514  4.457684
  S    -3.719885  2.212393  2.557232
  S    -3.596974  6.605905  3.021070
  S    -0.919960  3.163761 -0.304299
  S    -0.678171  6.992964  0.158499
  S    -1.538712  3.574015  3.771441
  S    -1.070071  7.037309  4.321324
