16  
    
  C     1.076884  4.336202  2.944060
  C     1.669316  8.542926  2.975886
  C    -0.048002  3.934510  2.148357
  C     0.444929  8.145991  2.367854
  N     2.113049  4.801331  2.252656
  N     2.660068  8.613852  2.114646
  N     0.157950  3.769759  0.840590
  N     0.547741  7.836098  1.088054
  N    -0.719659  3.905729  4.673539
  N    -0.043285  8.392348  4.805741
  S    -1.418744  3.581428  3.195699
  S    -0.856696  8.048885  3.416840
  S     1.778643  4.306735  0.644568
  S     2.107237  8.233003  0.607985
  S     0.809713  4.352423  4.704633
  S     1.537093  8.893815  4.652347
