16  
    
  C    -0.730671  2.935843  2.564571
  C    -1.267230  6.483170  2.446295
  C    -1.976099  2.481378  1.931095
  C    -2.422550  5.988407  1.767154
  N     0.332458  3.035699  1.748195
  N    -0.218053  6.870737  1.708425
  N    -1.866461  2.495906  0.607094
  N    -2.177196  5.767269  0.476027
  N    -2.535190  2.881125  4.387507
  N    -2.962196  5.937625  4.364900
  S    -3.332006  2.440201  3.001894
  S    -3.699143  5.620880  2.947357
  S    -0.261076  2.685277  0.216463
  S    -0.599444  6.311907  0.201635
  S    -0.929226  3.285709  4.247087
  S    -1.427981  6.548034  4.228955
