16  
    
  C    -1.786973  2.271241  1.983094
  C    -1.860970  6.133725  2.105033
  C    -3.035712  2.021933  1.270871
  C    -3.066612  5.685686  1.432460
  N    -0.698223  2.472703  1.207395
  N    -0.820032  6.291384  1.346021
  N    -2.794690  1.828033 -0.041190
  N    -2.872246  5.566239  0.090036
  N    -3.651033  1.964988  3.796494
  N    -3.605609  5.976326  4.018095
  S    -4.391664  1.923107  2.301466
  S    -4.323641  5.725338  2.580114
  S    -1.164194  2.097621 -0.315526
  S    -1.224643  5.902541 -0.261740
  S    -2.023312  2.399076  3.728637
  S    -2.004028  6.367737  3.815786
