16  
    
  C    -1.902303  2.458846  2.562868
  C    -1.824159  5.906023  2.332875
  C    -3.039159  1.906403  1.874767
  C    -3.073253  5.577653  1.699405
  N    -0.803432  2.616298  1.802217
  N    -0.884821  6.332759  1.452304
  N    -2.898094  1.881170  0.553034
  N    -2.997541  5.541273  0.351286
  N    -3.694197  2.082866  4.306533
  N    -3.397318  5.653101  4.246702
  S    -4.412926  1.609042  2.895198
  S    -4.309065  5.460691  2.850319
  S    -1.281760  2.220296  0.249246
  S    -1.445108  5.963950 -0.038930
  S    -2.105273  2.561629  4.281761
  S    -1.757052  6.093056  4.050235
