16  
    
  C    -1.513525  2.739212  2.200997
  C    -1.331436  6.741069  2.201481
  C    -2.491109  1.927861  1.522799
  C    -2.607489  6.277111  1.649131
  N    -0.493687  3.017788  1.406011
  N    -0.300069  6.725110  1.361102
  N    -2.266209  1.629391  0.241540
  N    -2.537934  5.871478  0.377868
  N    -3.404583  2.474690  3.907418
  N    -2.912353  6.341794  4.106728
  S    -3.928508  1.692664  2.502525
  S    -3.895665  6.169370  2.804650
  S    -0.820478  2.367018 -0.066910
  S    -0.995766  6.284088 -0.102182
  S    -1.824728  3.016297  3.910549
  S    -1.357829  6.935310  3.880974
