16  
    
  C    -4.528290  0.968069  1.679540
  C    -4.779668  4.525572  1.534393
  C    -5.769485  0.620724  0.987922
  C    -5.975702  4.236698  0.803801
  N    -3.465529  1.173096  0.882977
  N    -3.711246  4.952132  0.827482
  N    -5.718370  0.768078 -0.324532
  N    -5.835884  4.461159 -0.514190
  N    -6.308082  0.665276  3.642344
  N    -6.651766  4.296609  3.374755
  S    -7.076063  0.517625  2.152542
  S    -7.367967  3.932911  1.967041
  S    -4.031593  1.271969 -0.678941
  S    -4.257377  4.964282 -0.725871
  S    -4.645124  1.038990  3.452463
  S    -5.003822  4.448232  3.281773
