16  
    
  C     2.975489  5.079687  3.276031
  C     2.830808  9.134697  3.773543
  C     1.733546  4.786077  2.559491
  C     1.659101  8.660938  3.097730
  N     4.033039  5.163917  2.454199
  N     3.944129  9.345050  3.106345
  N     1.944266  4.396040  1.294587
  N     1.885717  8.577500  1.762908
  N     1.141875  4.960369  5.056053
  N     1.211045  8.856010  5.663302
  S     0.402660  4.466376  3.631914
  S     0.404451  8.339555  4.311962
  S     3.517520  4.781954  0.940587
  S     3.611605  8.836925  1.552804
  S     2.803782  5.369816  4.955730
  S     2.753382  9.437503  5.490983
