16  
    
  C     1.931327  4.355819  3.357840
  C     1.651301  7.755774  3.036839
  C     0.682501  4.071761  2.701492
  C     0.373464  7.574881  2.361270
  N     2.986136  4.385181  2.559861
  N     2.672531  7.962509  2.228909
  N     0.722363  4.134013  1.397497
  N     0.507881  7.680654  1.031330
  N     0.138131  3.960437  5.263750
  N     0.009738  7.418372  4.967601
  S    -0.545538  3.712331  3.781061
  S    -0.840502  7.175129  3.528453
  S     2.329265  4.483754  0.994322
  S     2.126896  7.828853  0.688162
  S     1.816859  4.292994  5.123261
  S     1.643948  7.651329  4.745661
