16  
    
  C    -5.347023  0.936650  1.770187
  C    -5.129768  4.664832  1.396502
  C    -6.583270  0.607906  1.082806
  C    -6.359873  4.315917  0.723411
  N    -4.342500  1.102224  0.939418
  N    -4.109611  4.834003  0.572703
  N    -6.450832  0.459548 -0.215566
  N    -6.214008  4.096908 -0.571231
  N    -7.187856  1.030179  3.651192
  N    -7.033776  4.984777  3.138219
  S    -7.883069  0.614442  2.184092
  S    -7.791942  4.465258  1.757519
  S    -4.854109  0.837208 -0.590092
  S    -4.612500  4.463164 -0.979668
  S    -5.515547  1.342789  3.453603
  S    -5.390259  5.249048  2.985888
