16  
    
  C     2.273736  4.709972  3.168861
  C     2.070622  8.996524  3.404566
  C     1.020888  4.268644  2.557481
  C     0.875186  8.452649  2.738327
  N     3.270441  4.968647  2.297627
  N     3.115704  9.199459  2.629665
  N     0.979024  4.449871  1.237713
  N     1.084088  8.139867  1.461148
  N     0.561701  4.259568  5.051518
  N     0.414413  8.459626  5.289804
  S    -0.312004  3.959054  3.741228
  S    -0.484788  8.340932  3.878386
  S     2.531086  4.968740  0.795596
  S     2.683053  8.588449  1.173040
  S     2.126126  4.717173  4.920455
  S     1.967505  9.024373  5.142407
