16  
    
  C    -1.098066  3.166861  2.391724
  C    -0.626946  6.677611  2.292909
  C    -2.363995  2.760047  1.783910
  C    -1.925823  6.485847  1.709448
  N    -0.025412  3.026728  1.626512
  N     0.288980  6.773800  1.349838
  N    -2.251083  2.445506  0.502871
  N    -1.948095  6.260914  0.397033
  N    -2.959341  3.165766  4.242243
  N    -2.333470  6.591518  4.267908
  S    -3.763932  3.052990  2.770793
  S    -3.194602  6.357130  2.896562
  S    -0.661549  2.684875  0.102776
  S    -0.376578  6.614251 -0.169325
  S    -1.281860  3.291672  4.132528
  S    -0.776650  6.907312  4.057418
