16  
    
  C    -5.247511  0.996660  1.413398
  C    -5.429166  4.618118  1.610441
  C    -6.476480  0.546550  0.786059
  C    -6.727019  4.315724  1.028218
  N    -4.219654  1.296303  0.572693
  N    -4.458043  4.771264  0.689777
  N    -6.436989  0.357414 -0.532967
  N    -6.739617  4.051300 -0.299216
  N    -7.111330  0.922000  3.319014
  N    -6.976548  4.219819  3.578480
  S    -7.866299  0.431737  1.851795
  S    -7.979669  4.271393  2.240429
  S    -4.913626  0.937730 -0.965278
  S    -5.210691  4.464491 -0.767258
  S    -5.512873  1.361274  3.048197
  S    -5.404612  4.888144  3.372559
