16  
    
  C     0.984643  4.122096  2.709099
  C     1.093346  7.564411  3.079798
  C    -0.201112  3.389279  2.335560
  C    -0.180407  7.200020  2.497556
  N     1.932481  3.999612  1.750402
  N     2.146345  7.623615  2.226136
  N    -0.215005  2.982884  1.073117
  N    -0.071973  6.902309  1.186025
  N    -0.727255  4.273721  4.645966
  N    -0.597079  7.403400  5.053426
  S    -1.475751  3.402240  3.499474
  S    -1.485073  7.111438  3.720158
  S     1.281255  3.242962  0.500147
  S     1.531489  7.175545  0.786572
  S     0.912697  4.590487  4.345271
  S     0.923809  7.993479  4.787217
