16  
    
  C    -2.285884  2.546053  1.908453
  C    -2.199380  5.987944  2.192374
  C    -3.575876  2.028700  1.426236
  C    -3.461103  5.512602  1.532180
  N    -1.281757  2.525597  1.056278
  N    -1.221497  6.262749  1.372130
  N    -3.533795  1.795715  0.124441
  N    -3.262070  5.241586  0.240452
  N    -3.950327  2.388814  3.915115
  N    -4.126675  5.905950  4.003107
  S    -4.831491  2.013926  2.572249
  S    -4.896222  5.428559  2.581151
  S    -2.000859  2.104038 -0.402639
  S    -1.738225  5.655824 -0.135475
  S    -2.348556  2.778782  3.638537
  S    -2.459300  6.168110  3.943911
