16  
    
  C     3.203826  5.004731  3.441501
  C     3.355276  9.158942  3.719868
  C     1.999333  4.539054  2.802787
  C     2.165353  8.843667  2.943606
  N     4.288517  5.101941  2.680021
  N     4.524197  9.187676  3.066958
  N     2.089700  4.572325  1.479681
  N     2.506592  8.651665  1.688188
  N     1.348480  5.160507  5.222157
  N     1.434787  9.031130  5.461508
  S     0.609164  4.663729  3.820655
  S     0.705509  8.800754  4.028888
  S     3.713177  4.788219  1.092472
  S     4.106732  8.990888  1.495553
  S     3.010446  5.225439  5.192714
  S     3.104800  9.235005  5.442861
