16  
    
  C    -5.054697  1.158734  1.796767
  C    -4.985441  4.845075  1.539434
  C    -6.218413  0.626849  1.146920
  C    -6.124518  4.276427  0.815034
  N    -4.017250  1.391330  0.971116
  N    -3.927905  5.067325  0.775332
  N    -6.046100  0.264298 -0.113592
  N    -5.903086  4.021299 -0.470697
  N    -6.895863  0.933487  3.637380
  N    -6.845909  4.608266  3.306366
  S    -7.571575  0.212668  2.267951
  S    -7.472579  3.963324  1.893912
  S    -4.420407  0.683734 -0.502415
  S    -4.334088  4.572405 -0.765545
  S    -5.319631  1.438201  3.449665
  S    -5.288429  5.270748  3.201157
