16  
    
  C     3.094637  5.010745  3.444196
  C     3.175294  8.678576  3.746906
  C     1.823963  4.756619  2.833050
  C     1.814980  8.534570  3.232678
  N     4.135966  5.112373  2.619095
  N     4.171685  8.640586  2.805941
  N     1.946757  4.326251  1.567891
  N     1.821555  8.263957  1.908182
  N     1.402782  5.006059  5.407181
  N     1.806340  9.386262  5.753476
  S     0.526686  4.604040  4.072170
  S     0.731140  9.071175  4.541040
  S     3.556825  4.729413  1.067279
  S     3.458266  8.193856  1.403832
  S     3.056101  5.319791  5.169364
  S     3.427244  9.334516  5.349650
