16  
    
  C    -0.825304  3.175581  2.397870
  C    -0.843156  6.493255  2.452186
  C    -2.069165  2.633284  1.861736
  C    -2.010211  6.054216  1.758500
  N     0.224298  3.209867  1.558834
  N     0.268330  6.557672  1.723684
  N    -1.949338  2.458050  0.541910
  N    -1.773036  5.761365  0.465167
  N    -2.418556  2.808503  4.332277
  N    -2.692515  6.378208  4.212974
  S    -3.355370  2.615090  3.022467
  S    -3.410341  5.872926  2.807145
  S    -0.425924  2.889592  0.072377
  S    -0.122904  6.206162  0.169603
  S    -0.869360  3.282568  4.160064
  S    -1.042679  6.626517  4.127984
