16  
    
  C    -4.155306  1.644911  1.861282
  C    -3.904822  5.214613  1.908931
  C    -5.341049  0.921427  1.433823
  C    -5.090461  4.509900  1.377247
  N    -3.178136  1.711341  0.924503
  N    -2.952782  5.304879  0.980013
  N    -5.340761  0.554375  0.134734
  N    -4.966738  4.134372  0.093385
  N    -5.927115  1.789156  3.784278
  N    -5.818062  5.337351  3.777589
  S    -6.650958  0.954493  2.550604
  S    -6.450509  4.647018  2.402213
  S    -3.803643  1.069064 -0.452365
  S    -3.498217  4.616964 -0.427292
  S    -4.269816  1.943328  3.578784
  S    -4.180561  5.671881  3.550633
