16  
    
  C     3.010726  5.383556  3.847129
  C     2.664362  8.516071  3.120473
  C     1.716805  4.962092  3.345755
  C     1.340871  8.196109  2.588880
  N     4.018348  5.129982  2.978610
  N     3.616221  8.510139  2.221665
  N     1.730246  4.658755  2.021677
  N     1.318403  8.090656  1.271906
  N     1.236694  5.696723  5.815268
  N     0.997640  8.786545  5.004136
  S     0.359737  5.301321  4.417443
  S     0.073185  8.202797  3.818324
  S     3.306627  4.790275  1.543309
  S     2.916576  8.188143  0.796340
  S     2.904105  5.861323  5.568234
  S     2.635784  9.022165  4.825033
