16  
    
  C    -1.834289  2.392537  2.251007
  C    -1.894348  6.283629  2.282546
  C    -3.092538  1.971298  1.609864
  C    -3.013461  5.535657  1.694193
  N    -0.813542  2.689065  1.411948
  N    -0.906725  6.539800  1.397540
  N    -2.875845  1.709329  0.308342
  N    -2.994756  5.419852  0.332105
  N    -3.559954  2.185576  4.127343
  N    -3.510141  6.061513  4.182368
  S    -4.355453  1.789486  2.706928
  S    -4.208481  5.290006  2.890569
  S    -1.353212  2.176367 -0.079465
  S    -1.448989  5.897022  0.012147
  S    -1.934785  2.588265  3.974192
  S    -2.012990  6.739581  3.943493
