16  
    
  C     3.060911  5.107682  3.364717
  C     3.108784  9.028613  3.769730
  C     1.867054  4.682796  2.690751
  C     1.771809  8.690409  3.302105
  N     4.152670  5.008648  2.611072
  N     4.036465  8.914055  2.816729
  N     1.989730  4.616976  1.343878
  N     1.648549  8.294185  1.992741
  N     1.281124  5.002704  5.212397
  N     1.503901  9.347766  5.786559
  S     0.463283  4.611220  3.837061
  S     0.556924  8.764535  4.565149
  S     3.679317  4.858575  1.044528
  S     3.286893  8.271451  1.457366
  S     2.910524  5.248634  5.116101
  S     3.147728  9.343762  5.492072
