16  
    
  C     3.049264  5.155129  3.407817
  C     3.420548  9.026619  3.578134
  C     2.028120  4.355721  2.759913
  C     2.120535  8.675341  3.009390
  N     4.053755  5.479552  2.609519
  N     4.396182  9.001055  2.656881
  N     2.144186  4.349276  1.399319
  N     2.050371  8.425162  1.705690
  N     1.154846  5.065090  5.079504
  N     1.606077  8.832338  5.424140
  S     0.595960  4.142525  3.808648
  S     0.724555  8.595422  4.072708
  S     3.714079  4.993785  1.053461
  S     3.603237  8.772283  1.126756
  S     2.779615  5.388817  5.139372
  S     3.165456  9.293566  5.311788
