16  
    
  C     1.009216  4.495990  2.909711
  C     1.673543  8.610985  2.926806
  C    -0.040848  3.795973  2.167411
  C     0.457774  8.059442  2.311769
  N     2.106974  4.659840  2.126735
  N     2.699700  8.836489  2.084307
  N     0.242794  3.745779  0.863128
  N     0.553117  7.817481  0.994003
  N    -0.836148  3.823597  4.588454
  N    -0.072819  8.433308  4.885943
  S    -1.476187  3.493795  3.088570
  S    -0.915195  8.067620  3.463158
  S     1.780525  4.279272  0.584318
  S     2.114657  8.308028  0.635870
  S     0.788726  4.337679  4.623861
  S     1.522817  8.922511  4.651752
