16  
    
  C     2.933340  5.125572  3.195969
  C     2.797660  9.122467  3.459313
  C     1.729892  4.557667  2.678032
  C     1.727480  8.368540  2.811452
  N     3.814542  5.515252  2.243783
  N     3.819020  9.603402  2.794134
  N     1.802445  4.221071  1.384210
  N     2.055884  8.191456  1.527797
  N     1.297821  4.781908  5.267685
  N     1.160480  8.629096  5.342503
  S     0.549733  4.161948  3.880048
  S     0.443271  7.988238  4.005392
  S     3.291805  4.841386  0.821841
  S     3.514984  9.102944  1.249549
  S     2.745833  5.477150  4.921068
  S     2.671163  9.201218  5.184382
