16  
    
  C    -4.297924  1.463522  2.030358
  C    -4.642861  5.221503  1.693787
  C    -5.469696  0.973007  1.373046
  C    -5.881742  4.697495  1.118934
  N    -3.290866  1.757381  1.222019
  N    -3.632801  5.395541  0.841080
  N    -5.285678  0.616905  0.084780
  N    -5.744072  4.395371 -0.155385
  N    -6.124207  1.475736  3.730660
  N    -6.231007  4.942084  3.591000
  S    -6.863732  0.875102  2.317664
  S    -7.179989  4.539255  2.252817
  S    -3.723763  1.253615 -0.264690
  S    -4.231704  4.828805 -0.579202
  S    -4.528587  1.975666  3.737386
  S    -4.665323  5.445876  3.391434
