16  
    
  C    -0.749771  2.927804  2.498503
  C    -1.082738  6.462067  2.477070
  C    -2.049499  2.698798  1.837981
  C    -2.266946  5.932207  1.836796
  N     0.314760  2.998161  1.687448
  N     0.005945  6.659861  1.712002
  N    -1.871903  2.374240  0.535321
  N    -2.073494  5.830562  0.513291
  N    -2.484657  2.748940  4.422596
  N    -2.939222  6.104994  4.287746
  S    -3.295350  2.417314  2.978652
  S    -3.627063  5.610727  2.863409
  S    -0.280661  2.768401  0.145221
  S    -0.516178  6.245435  0.180153
  S    -0.868539  3.274269  4.162771
  S    -1.328573  6.594004  4.236472
