16  
    
  C     0.454298  3.641469  2.846416
  C     0.791012  7.684410  2.603521
  C    -0.639863  3.087799  2.061412
  C    -0.376044  7.167902  1.960245
  N     1.507194  3.955413  2.098481
  N     1.784299  8.032030  1.791941
  N    -0.369190  2.945144  0.768935
  N    -0.374612  7.239888  0.624187
  N    -1.361628  3.220724  4.545356
  N    -0.765213  6.765724  4.558101
  S    -1.953165  2.724349  3.037101
  S    -1.527080  6.515378  3.116537
  S     1.174169  3.621188  0.557339
  S     1.195602  7.839190  0.259547
  S     0.212802  3.724730  4.558029
  S     0.708513  7.522863  4.391627
