16  
    
  C    -4.326771  1.741567  1.923372
  C    -4.346764  5.201116  1.761874
  C    -5.479496  1.092646  1.263504
  C    -5.650401  4.794067  1.208954
  N    -3.211054  1.719064  1.200847
  N    -3.381051  5.252899  0.840784
  N    -5.180484  0.699531  0.033129
  N    -5.633600  4.541363 -0.083650
  N    -6.078968  1.493209  3.668786
  N    -6.137053  5.154807  3.659794
  S    -6.836453  0.988221  2.261244
  S    -6.968314  4.652854  2.236690
  S    -3.625574  0.986464 -0.253955
  S    -4.095934  4.846356 -0.611050
  S    -4.510259  2.133041  3.627954
  S    -4.452631  5.625052  3.428975
