16  
    
  C    -0.319338  3.346355  2.725611
  C    -0.467670  6.943108  2.411702
  C    -1.615017  3.222283  2.058294
  C    -1.642149  6.416203  1.872360
  N     0.654594  3.410849  1.823376
  N     0.539617  7.131518  1.586502
  N    -1.610627  2.970025  0.735988
  N    -1.597824  6.260623  0.548221
  N    -2.091285  3.239415  4.656828
  N    -2.169595  6.724701  4.366930
  S    -2.879162  2.885306  3.207775
  S    -2.970210  6.158583  3.021412
  S    -0.021294  3.260467  0.299099
  S    -0.078101  6.755010  0.104036
  S    -0.472031  3.707646  4.426005
  S    -0.581823  7.105438  4.162328
