16  
    
  C     0.976043  4.129027  2.709700
  C     1.092127  7.561595  3.067934
  C    -0.202161  3.390710  2.345967
  C    -0.174050  7.195105  2.494185
  N     1.940299  3.988019  1.753936
  N     2.155012  7.627651  2.227685
  N    -0.220417  2.988235  1.079355
  N    -0.071011  6.899131  1.182194
  N    -0.727506  4.266831  4.649863
  N    -0.596636  7.402065  5.055164
  S    -1.480275  3.400404  3.504949
  S    -1.489871  7.109038  3.716762
  S     1.278173  3.244374  0.500072
  S     1.532319  7.170570  0.787370
  S     0.913920  4.580417  4.347265
  S     0.925949  7.995463  4.788164
