16  
    
  C     1.459126  4.292120  3.444578
  C     1.425586  7.981266  3.102295
  C     0.145344  4.194680  2.908855
  C     0.175355  7.785560  2.389739
  N     2.357667  4.489894  2.464085
  N     2.505312  7.977966  2.297145
  N     0.055227  3.965911  1.600954
  N     0.224218  7.678872  1.053911
  N    -0.043628  4.666181  5.412440
  N    -0.458468  7.893543  4.915968
  S    -1.010451  4.172865  4.175992
  S    -1.171481  7.528238  3.488167
  S     1.628648  4.219752  1.055246
  S     1.865243  7.824147  0.764909
  S     1.516187  4.803489  5.123930
  S     1.173708  8.177794  4.872619
