16  
    
  C     2.619420  5.042193  3.612332
  C     2.282706  8.831902  3.422002
  C     1.389428  4.528563  3.083603
  C     1.301767  7.990007  2.844666
  N     3.586800  5.191717  2.723169
  N     3.283067  9.147275  2.561484
  N     1.511809  4.181166  1.807108
  N     1.580124  7.544415  1.603392
  N     0.968626  4.952000  5.663305
  N     0.473579  8.165719  5.246970
  S     0.220739  4.171010  4.386312
  S    -0.101899  7.581960  3.723387
  S     3.055560  4.582474  1.312937
  S     2.961180  8.271759  1.198990
  S     2.557730  5.470592  5.287667
  S     1.851790  9.071609  5.118927
