16  
    
  C    -6.067066  0.815089  1.392060
  C    -6.074316  4.341047  1.821096
  C    -7.246326  0.168615  0.824751
  C    -7.258656  3.936853  1.060026
  N    -5.240992  1.315446  0.482550
  N    -4.987525  4.684669  1.082891
  N    -7.279226  0.137453 -0.518686
  N    -7.038703  3.879351 -0.269545
  N    -7.607421  0.280213  3.376307
  N    -7.923937  3.784822  3.611476
  S    -8.375354 -0.344935  2.025060
  S    -8.677923  3.554265  2.108260
  S    -5.917724  0.898503 -0.954641
  S    -5.507555  4.452665 -0.479908
  S    -6.115205  0.914168  3.125253
  S    -6.406540  4.478340  3.526090
