16  
    
  C     3.099653  5.107290  3.384492
  C     3.198964  8.883147  3.650237
  C     1.997834  4.562904  2.720580
  C     2.003211  8.550747  2.928549
  N     4.160685  5.370339  2.621475
  N     4.262465  9.107323  2.888744
  N     2.200832  4.303811  1.426416
  N     2.124349  8.615413  1.554130
  N     1.218691  4.954912  5.153505
  N     1.473727  8.958697  5.497995
  S     0.652765  4.177440  3.798578
  S     0.687388  8.555474  4.062182
  S     3.694456  4.987197  1.135701
  S     3.828057  8.895797  1.342006
  S     2.837924  5.352020  5.052062
  S     3.132669  9.281540  5.251578
