16  
    
  C    -3.800644  1.999874  1.890933
  C    -3.492004  5.386426  1.879950
  C    -4.709398  1.012120  1.281680
  C    -4.749928  4.987757  1.357515
  N    -2.755573  2.365872  1.188337
  N    -2.546298  5.595645  0.987494
  N    -4.441700  0.747272  0.022766
  N    -4.773600  4.747647  0.040953
  N    -5.416284  1.326490  3.659682
  N    -5.275321  5.417352  3.817481
  S    -5.939383  0.513557  2.326269
  S    -6.085663  4.966614  2.516976
  S    -3.066301  1.608868 -0.315189
  S    -3.236096  5.069256 -0.440268
  S    -4.167800  2.435762  3.547918
  S    -3.681446  5.772160  3.577999
