16  
    
  C    -4.138897  1.599932  1.896631
  C    -3.934394  5.123822  1.974755
  C    -5.424000  1.088941  1.336193
  C    -5.113342  4.590516  1.384181
  N    -3.170403  1.615786  1.018843
  N    -2.926468  5.204383  1.119538
  N    -5.402847  0.769406  0.065897
  N    -4.918274  4.138047  0.145019
  N    -5.821328  1.568565  3.823178
  N    -5.667891  5.375304  3.777076
  S    -6.654032  0.960432  2.562164
  S    -6.497836  4.684523  2.471903
  S    -3.788168  1.051363 -0.456439
  S    -3.380031  4.598517 -0.295813
  S    -4.215420  1.849161  3.623668
  S    -4.028997  5.757308  3.568375
