16  
    
  C     2.019433  4.403776  3.022317
  C     1.985784  7.886918  3.147138
  C     0.757281  3.901570  2.457052
  C     0.802549  7.542511  2.418985
  N     3.075067  4.305930  2.173326
  N     3.103023  8.025491  2.454972
  N     0.810156  3.838417  1.095275
  N     1.065843  7.510821  1.104055
  N     0.281419  4.263587  4.995501
  N     0.123716  7.792037  4.927574
  S    -0.538063  3.959104  3.552539
  S    -0.569811  7.354975  3.455749
  S     2.366371  3.925464  0.742515
  S     2.666178  7.809652  0.857063
  S     1.858405  4.778631  4.742227
  S     1.758856  8.225701  4.805154
