16  
    
  C     0.451401  3.820975  3.007951
  C     0.436868  7.535396  2.929628
  C    -0.872610  3.563055  2.361917
  C    -0.819332  7.275320  2.312491
  N     1.425723  3.802459  2.109801
  N     1.421910  7.570358  2.058848
  N    -0.874632  3.679933  1.015505
  N    -0.790628  7.126868  0.993448
  N    -1.136534  3.112154  4.888216
  N    -1.259167  7.558574  4.834095
  S    -2.088224  3.256452  3.558554
  S    -2.111206  7.123700  3.457613
  S     0.764809  3.954086  0.619177
  S     0.900218  7.254070  0.504433
  S     0.495125  3.313503  4.659330
  S     0.343091  7.844915  4.626478
