16  
    
  C    -5.430895  1.191699  1.625614
  C    -5.191133  4.805494  1.394116
  C    -6.723758  0.885339  0.977770
  C    -6.453679  4.428282  0.838369
  N    -4.400588  1.059920  0.798165
  N    -4.137874  4.714409  0.593490
  N    -6.642270  0.726009 -0.340424
  N    -6.368826  4.076428 -0.448100
  N    -7.183021  1.088526  3.489990
  N    -6.873818  4.834711  3.393409
  S    -8.043329  0.844617  2.052579
  S    -7.752742  4.414358  2.053958
  S    -4.996782  0.832987 -0.727545
  S    -4.744210  4.142083 -0.852173
  S    -5.521932  1.269754  3.367030
  S    -5.247648  5.071763  3.104787
