16  
    
  C     2.964484  4.836889  3.695884
  C     2.795933  8.887233  3.311788
  C     1.633065  4.981797  3.103995
  C     1.574263  8.464788  2.721885
  N     3.948589  4.906121  2.788374
  N     3.922618  8.793258  2.617554
  N     1.617507  4.887394  1.784877
  N     1.816692  7.956884  1.499158
  N     1.270521  5.540223  5.569067
  N     1.153001  8.756681  5.240704
  S     0.358646  5.288013  4.203955
  S     0.223625  8.523170  3.900435
  S     3.166610  4.776981  1.266993
  S     3.434171  8.177155  1.110594
  S     2.920381  5.373612  5.383253
  S     2.771233  9.016947  5.028526
