16  
    
  C    -4.830631  1.163561  1.576355
  C    -4.744960  4.928977  1.872876
  C    -5.982687  0.563375  0.964939
  C    -5.874712  4.233171  1.274770
  N    -3.831306  1.427867  0.790469
  N    -3.695956  5.025917  1.063338
  N    -5.774327  0.270263 -0.306979
  N    -5.661746  3.839273  0.025378
  N    -6.611745  0.832915  3.372079
  N    -6.481135  4.393964  3.742935
  S    -7.301549  0.165002  2.022018
  S    -7.207764  3.905847  2.330377
  S    -4.235246  0.878242 -0.741454
  S    -4.137836  4.365049 -0.427583
  S    -5.086080  1.377563  3.332782
  S    -4.953871  5.088307  3.617091
