16  
    
  C    -4.831301  1.164076  1.575105
  C    -4.742905  4.928099  1.870979
  C    -5.988488  0.578203  0.954009
  C    -5.875793  4.241824  1.274309
  N    -3.830971  1.432642  0.792217
  N    -3.688038  5.028459  1.067931
  N    -5.779937  0.265673 -0.316028
  N    -5.660582  3.839557  0.024538
  N    -6.601186  0.829931  3.369632
  N    -6.475665  4.390338  3.752215
  S    -7.297494  0.169696  2.014761
  S    -7.209543  3.907402  2.337703
  S    -4.233595  0.878057 -0.743086
  S    -4.136958  4.361992 -0.420648
  S    -5.081512  1.373363  3.331295
  S    -4.950725  5.084717  3.616733
