16  
    
  C    -0.375583  3.430857  2.811458
  C    -0.652259  6.894600  2.623593
  C    -1.607940  3.108089  2.177584
  C    -1.796649  6.306847  1.927189
  N     0.652237  3.713796  2.021936
  N     0.377000  7.158571  1.827175
  N    -1.438995  2.787205  0.899934
  N    -1.627201  6.248202  0.613026
  N    -2.123610  3.175061  4.754770
  N    -2.512138  6.658323  4.321293
  S    -2.949382  2.910884  3.270200
  S    -3.157085  6.067099  2.904048
  S     0.141826  3.243144  0.507191
  S    -0.071548  6.647872  0.351281
  S    -0.522119  3.776220  4.535743
  S    -0.933648  7.075239  4.324600
