16  
    
  C    -2.587935  2.684322  2.020700
  C    -2.457972  6.156494  2.135501
  C    -3.783994  2.107251  1.514104
  C    -3.602490  5.632625  1.386325
  N    -1.547495  2.714343  1.176659
  N    -1.307596  6.287628  1.393349
  N    -3.739910  1.890039  0.195552
  N    -3.331555  5.347186  0.087398
  N    -4.313778  2.488420  3.997155
  N    -4.400307  6.044433  3.839948
  S    -5.087780  1.905266  2.620339
  S    -4.906885  5.368205  2.389994
  S    -2.178123  2.127949 -0.272362
  S    -1.862023  5.976172 -0.181287
  S    -2.667333  2.880802  3.760293
  S    -2.857827  6.640128  3.776222
