16  
    
  C    -3.528741  1.851483  1.553677
  C    -3.866954  5.291483  1.603631
  C    -4.715690  1.349034  0.985915
  C    -5.121131  4.737024  1.085646
  N    -2.479525  2.153317  0.755357
  N    -2.899563  5.433458  0.694601
  N    -4.594378  1.131657 -0.332686
  N    -5.104390  4.600061 -0.249479
  N    -5.223037  1.577219  3.608401
  N    -5.560811  5.058288  3.625493
  S    -5.880850  0.966919  2.202017
  S    -6.403678  4.475213  2.246528
  S    -3.084890  1.700783 -0.794457
  S    -3.591233  4.904412 -0.736017
  S    -3.654624  2.141732  3.333769
  S    -4.043015  5.570015  3.303818
