16  
    
  C     0.571288  3.598549  2.970710
  C     0.470581  7.608286  2.904219
  C    -0.820038  3.595445  2.424065
  C    -0.747406  7.165665  2.232315
  N     1.447443  3.995171  2.065119
  N     1.555015  7.548941  2.107188
  N    -0.894312  3.729961  1.118118
  N    -0.626060  6.952233  0.910046
  N    -1.160548  3.311138  4.932932
  N    -1.322555  7.402468  4.711983
  S    -2.085490  3.326345  3.567140
  S    -2.111108  7.069971  3.312119
  S     0.721062  3.873898  0.561555
  S     1.027853  7.200051  0.617928
  S     0.527037  3.393513  4.647731
  S     0.269651  7.828646  4.570324
