16  
    
  C    -1.034404  3.118010  2.445943
  C    -0.627450  6.484366  2.346392
  C    -2.307801  2.718910  1.796558
  C    -1.890482  6.261771  1.691457
  N     0.059261  3.071761  1.677962
  N     0.368744  6.621645  1.549341
  N    -2.154482  2.665114  0.464479
  N    -1.795629  6.093693  0.392236
  N    -2.841962  3.220699  4.289964
  N    -2.338422  6.561267  4.137605
  S    -3.643751  2.891294  2.873551
  S    -3.181476  6.177972  2.773083
  S    -0.513959  2.694173  0.159819
  S    -0.174743  6.522063  0.034083
  S    -1.196806  3.374570  4.160584
  S    -0.724896  6.822481  4.016605
