16  
    
  C     0.515657  3.701349  2.930741
  C     0.481140  7.564855  2.911860
  C    -0.776259  3.458738  2.412559
  C    -0.716746  7.159399  2.246137
  N     1.496594  3.915233  2.021031
  N     1.526508  7.563070  2.153743
  N    -0.885651  3.749757  1.115123
  N    -0.569709  6.886224  0.989419
  N    -1.093951  3.381415  4.940743
  N    -1.302586  7.357132  4.649383
  S    -2.096036  3.338038  3.570000
  S    -2.098167  7.056837  3.201359
  S     0.706493  3.865136  0.550347
  S     1.079463  7.200710  0.598111
  S     0.513097  3.446820  4.684950
  S     0.255356  7.820090  4.586184
