16  
    
  C     2.262432  4.334747  3.112162
  C     1.982487  8.254624  3.139924
  C     1.076095  4.087865  2.310491
  C     0.832090  7.589158  2.543309
  N     3.324425  4.514227  2.353892
  N     3.046754  8.192846  2.352311
  N     1.312069  3.765903  1.047535
  N     1.094156  7.006622  1.360850
  N     0.251314  4.364213  4.794809
  N     0.122338  8.210385  4.912988
  S    -0.411195  3.939069  3.279159
  S    -0.599585  7.608137  3.561309
  S     2.932324  4.036260  0.791829
  S     2.606137  7.450057  0.945395
  S     1.821288  4.815584  4.654317
  S     1.662209  8.843864  4.722736
