16  
    
  C     2.848174  5.236800  3.287783
  C     2.904583  9.015041  3.420361
  C     1.674736  4.647345  2.701097
  C     1.790447  8.425940  2.725383
  N     3.845187  5.526845  2.470349
  N     3.861960  9.348332  2.533751
  N     1.837109  4.347029  1.423008
  N     1.802340  8.390853  1.379857
  N     1.318613  4.725308  5.277051
  N     1.184211  8.339348  5.215681
  S     0.483067  4.232868  3.870391
  S     0.587229  7.799156  3.780164
  S     3.306016  5.073027  0.992871
  S     3.317207  8.875968  1.017339
  S     2.782138  5.493797  4.987316
  S     2.607148  9.102730  5.199460
