16  
    
  C     2.522734  4.738875  3.522979
  C     2.459636  8.720621  3.401757
  C     1.338872  4.431144  2.768293
  C     1.226022  8.178544  2.913495
  N     3.598204  5.027196  2.757121
  N     3.466541  8.895634  2.547565
  N     1.449951  4.339174  1.442246
  N     1.308140  7.837971  1.602177
  N     0.525769  4.474622  5.269033
  N     0.978774  8.408720  5.501127
  S     0.037537  3.919851  3.723189
  S     0.041141  7.998804  4.194451
  S     3.037965  4.711237  1.191850
  S     2.830684  8.361586  1.094185
  S     2.142781  4.994384  5.228920
  S     2.562629  8.888068  5.087610
