16  
    
  C     2.960670  4.806688  3.691405
  C     2.805978  8.867286  3.335475
  C     1.636443  4.983009  3.097541
  C     1.586935  8.466143  2.720334
  N     3.951659  4.911156  2.796219
  N     3.934843  8.783101  2.628249
  N     1.628182  4.884092  1.777123
  N     1.845893  7.960255  1.474234
  N     1.276813  5.529740  5.533448
  N     1.134533  8.749616  5.259233
  S     0.345085  5.276160  4.192393
  S     0.209248  8.518308  3.904045
  S     3.168322  4.792810  1.275118
  S     3.452149  8.190230  1.129702
  S     2.919701  5.365609  5.376287
  S     2.786975  9.020552  5.033048
