16  
    
  C     2.284788  4.347548  3.047834
  C     1.910158  8.351211  3.102361
  C     1.064733  4.085872  2.291067
  C     0.772659  7.660768  2.557816
  N     3.424842  4.400824  2.330382
  N     3.014316  8.321134  2.355822
  N     1.331111  3.710417  1.056246
  N     1.006548  7.174924  1.347888
  N     0.214988  4.425398  4.635470
  N     0.146822  8.615514  4.841471
  S    -0.357405  3.831453  3.249666
  S    -0.517962  7.565618  3.742091
  S     2.885700  3.975681  0.820466
  S     2.594348  7.551056  0.931684
  S     1.873983  4.640659  4.755328
  S     1.701487  9.050069  4.627716
