16  
    
  C     2.574617  5.026866  3.593543
  C     2.205632  8.840380  3.418649
  C     1.437246  4.281593  3.080569
  C     1.235006  7.960248  2.814594
  N     3.514036  5.269273  2.716129
  N     3.255160  9.079899  2.644082
  N     1.463343  4.063159  1.769222
  N     1.551573  7.486128  1.590043
  N     0.944157  4.849306  5.537761
  N     0.515917  8.269271  5.209277
  S     0.154416  4.226473  4.269011
  S    -0.085159  7.593336  3.874744
  S     2.969576  4.625653  1.251273
  S     2.971003  8.304928  1.158267
  S     2.489295  5.347318  5.270816
  S     1.949409  9.118235  5.078708
