16  
    
  C     1.190339  4.457423  3.171550
  C     1.657348  8.130671  3.049534
  C     0.000691  3.953054  2.555552
  C     0.385682  7.975628  2.377661
  N     2.158456  4.600834  2.268836
  N     2.712050  7.986092  2.216419
  N    -0.084120  4.123411  1.240040
  N     0.416827  7.745495  1.057896
  N    -0.418029  4.190034  5.185598
  N    -0.152383  8.239061  4.890419
  S    -1.240690  3.791100  3.722281
  S    -0.983082  8.167396  3.443199
  S     1.529909  4.414311  0.736013
  S     2.077732  7.817468  0.751490
  S     1.147456  4.588077  4.869351
  S     1.523500  8.337931  4.744262
