16  
    
  C    -1.090325  3.056756  2.434511
  C    -0.611038  6.497511  2.350354
  C    -2.309223  2.754042  1.773048
  C    -1.850957  6.173547  1.707629
  N     0.014195  3.106500  1.681809
  N     0.418792  6.673158  1.495660
  N    -2.200126  2.597963  0.449978
  N    -1.802665  6.235294  0.366802
  N    -2.861083  3.209713  4.246351
  N    -2.337624  6.597793  4.184830
  S    -3.674019  2.957622  2.862163
  S    -3.210346  6.220458  2.778228
  S    -0.523086  2.675813  0.149845
  S    -0.260662  6.534971  0.000594
  S    -1.235857  3.363565  4.168197
  S    -0.696198  6.865591  4.001527
