16  
    
  C    -6.006936  0.914716  1.329714
  C    -6.009717  4.475196  1.640441
  C    -7.257910  0.496371  0.643716
  C    -7.226922  3.890975  0.925645
  N    -4.934810  1.113302  0.541506
  N    -5.053609  4.780970  0.787792
  N    -7.143262  0.491052 -0.680805
  N    -7.134566  3.916077 -0.391627
  N    -7.745174  0.264025  3.187451
  N    -7.724327  3.883504  3.483008
  S    -8.609526  0.178630  1.767178
  S    -8.412898  3.275600  2.076207
  S    -5.549541  0.808137 -0.999826
  S    -5.619216  4.468907 -0.762517
  S    -6.169300  0.672866  3.073779
  S    -6.087989  4.213968  3.430210
