16  
    
  C    -1.548253  2.849981  2.009420
  C    -1.126265  6.877705  2.237367
  C    -2.675635  2.255088  1.345207
  C    -2.424185  6.422200  1.676760
  N    -0.469496  3.135980  1.231399
  N    -0.111598  6.962051  1.375533
  N    -2.357018  1.958313  0.076295
  N    -2.403243  6.246922  0.342721
  N    -3.290529  2.414328  3.792803
  N    -2.741172  7.009366  4.182909
  S    -3.867663  1.661130  2.445195
  S    -3.670295  6.453629  2.881834
  S    -0.903779  2.623164 -0.277434
  S    -0.839772  6.638216 -0.092332
  S    -1.910578  3.311463  3.667085
  S    -1.049121  7.139430  3.956190
