16  
    
  C     0.181801  3.707525  2.794964
  C     0.312816  7.475441  2.681977
  C    -0.871645  3.054669  2.143839
  C    -0.989904  7.416481  2.068820
  N     1.264507  3.964465  2.049543
  N     1.353764  7.475049  1.842976
  N    -0.708596  2.949503  0.854030
  N    -0.944117  7.495586  0.721777
  N    -1.535723  3.015626  4.586775
  N    -1.374037  7.445103  4.714090
  S    -2.299889  2.731392  3.097056
  S    -2.272225  7.331775  3.326448
  S     0.781712  3.561954  0.483873
  S     0.635679  7.609599  0.339387
  S    -0.030067  3.588620  4.561756
  S     0.248291  7.599653  4.486483
