16  
    
  C    -2.373999  2.114673  2.026117
  C    -2.499964  5.682019  2.118405
  C    -3.726861  1.944548  1.443674
  C    -3.663440  5.290687  1.403102
  N    -1.388184  1.967229  1.139508
  N    -1.441597  5.782928  1.253393
  N    -3.721660  1.620524  0.155555
  N    -3.601641  5.176155  0.070027
  N    -4.098313  2.203299  3.912799
  N    -4.395534  5.486583  3.879710
  S    -5.039061  2.108031  2.549320
  S    -5.118779  5.294093  2.434043
  S    -2.153127  1.574986 -0.305056
  S    -1.915956  5.382966 -0.248115
  S    -2.434444  2.357026  3.748571
  S    -2.797967  5.967034  3.809012
