16  
    
  C    -0.728928  3.067636  2.465513
  C    -0.990527  6.384856  2.553014
  C    -1.932985  2.562725  1.876318
  C    -2.164710  6.022195  1.802297
  N     0.288984  3.099063  1.598124
  N     0.067674  6.508905  1.781663
  N    -1.890556  2.452136  0.541175
  N    -2.036561  5.741418  0.529508
  N    -2.428386  2.724113  4.363907
  N    -2.858214  6.260235  4.181974
  S    -3.303173  2.468943  2.979247
  S    -3.522937  5.627498  2.781369
  S    -0.326300  2.766083  0.091905
  S    -0.493360  6.260159  0.245826
  S    -0.859264  3.244524  4.185517
  S    -1.262667  6.625975  4.204278
