16  
    
  C    -3.705735  1.741861  1.815673
  C    -3.899489  5.336664  1.818371
  C    -4.969699  1.477857  1.162521
  C    -5.129848  4.928595  1.062722
  N    -2.709546  2.049570  0.987871
  N    -2.848788  5.729604  1.115764
  N    -4.874285  1.348797 -0.146574
  N    -4.905428  5.018001 -0.248572
  N    -5.454336  1.593494  3.730514
  N    -5.779178  4.756658  3.510414
  S    -6.199565  1.114667  2.332949
  S    -6.506964  4.475435  2.056201
  S    -3.349184  1.763022 -0.556586
  S    -3.342809  5.500307 -0.500925
  S    -3.802494  1.809789  3.599836
  S    -4.226263  5.456359  3.500827
