16  
    
  C     1.951145  4.537575  3.329090
  C     1.492018  8.010854  3.019078
  C     0.795252  4.063245  2.695762
  C     0.405380  7.324921  2.308382
  N     2.915696  4.694750  2.445996
  N     2.489035  8.424625  2.226242
  N     0.817760  3.750702  1.440111
  N     0.582382  7.112199  0.984187
  N     0.163532  4.487242  5.167837
  N    -0.297928  7.629802  4.856990
  S    -0.531859  3.980055  3.790260
  S    -0.935767  6.967055  3.443040
  S     2.406562  4.182094  0.940616
  S     2.050046  7.963332  0.725211
  S     1.789465  4.898308  5.005814
  S     1.224430  8.257976  4.735423
