16  
    
  C    -4.243056  1.663045  1.885949
  C    -4.222693  5.254055  1.737309
  C    -5.381744  1.000959  1.299695
  C    -5.479439  4.741786  1.165456
  N    -3.191729  1.653269  1.093937
  N    -3.206397  5.274936  0.871107
  N    -5.244362  0.608053  0.032875
  N    -5.320329  4.352636 -0.094745
  N    -5.999670  1.584320  3.786754
  N    -5.883003  5.080266  3.817579
  S    -6.760974  0.976054  2.445527
  S    -6.717782  4.624824  2.436074
  S    -3.659797  0.979616 -0.426853
  S    -3.736135  4.700330 -0.584640
  S    -4.493819  2.186929  3.530614
  S    -4.355863  5.609249  3.390582
