16  
    
  C     2.832731  5.282631  3.288282
  C     2.857637  8.978732  3.387673
  C     1.735926  4.570213  2.724723
  C     1.724342  8.370055  2.724597
  N     3.871312  5.539658  2.513585
  N     3.900777  9.250658  2.536109
  N     1.854877  4.467367  1.400014
  N     1.845970  8.383720  1.391735
  N     1.222093  4.789063  5.285763
  N     1.163881  8.290047  5.237461
  S     0.470490  4.267918  3.915194
  S     0.555520  7.776933  3.786326
  S     3.326529  5.103109  0.991681
  S     3.335179  8.899526  1.007902
  S     2.766920  5.464040  5.014583
  S     2.623707  9.098116  5.139072
