16  
    
  C     2.079314  4.252519  3.342016
  C     1.714070  7.719625  3.065155
  C     0.736053  4.026112  2.721948
  C     0.422978  7.508965  2.397260
  N     3.017819  4.813832  2.515758
  N     2.721801  7.900997  2.241977
  N     0.862624  4.090891  1.374486
  N     0.550925  7.495494  1.088072
  N     0.253269  3.994025  5.169396
  N    -0.095838  7.479363  4.867540
  S    -0.606818  3.682407  3.828500
  S    -0.940770  7.308038  3.459462
  S     2.355384  4.555404  1.020300
  S     2.097500  7.809809  0.673788
  S     1.869663  4.366995  5.101153
  S     1.524405  7.632935  4.769003
