16  
    
  C    -1.919955  2.458689  2.599884
  C    -1.719788  5.983871  2.321749
  C    -3.113507  2.058123  1.916884
  C    -2.978996  5.595135  1.728234
  N    -0.833852  2.715831  1.821241
  N    -0.681283  6.114214  1.444714
  N    -2.887428  1.819838  0.622366
  N    -2.912673  5.491592  0.398449
  N    -3.751609  2.095283  4.409463
  N    -3.464056  5.684719  4.232224
  S    -4.424686  1.683653  2.947926
  S    -4.326250  5.472136  2.842898
  S    -1.296225  2.265486  0.314878
  S    -1.388766  6.023726 -0.110325
  S    -2.134744  2.461743  4.343935
  S    -1.855687  5.854676  4.034340
