16  
    
  C    -0.488905  3.342557  2.942684
  C    -1.077938  6.805761  2.726879
  C    -1.643270  2.914897  2.246299
  C    -2.112301  6.247322  1.938243
  N     0.600461  3.388357  2.174001
  N     0.103522  7.010165  2.132684
  N    -1.504063  2.591002  0.956925
  N    -1.777738  6.128924  0.668218
  N    -2.320273  3.421204  4.750464
  N    -2.991975  6.298648  4.244874
  S    -3.000102  2.750109  3.360523
  S    -3.637928  5.984737  2.710045
  S     0.085144  3.061393  0.628862
  S    -0.219021  6.608739  0.583950
  S    -0.676326  3.765461  4.593110
  S    -1.460518  6.895699  4.373432
