16  
    
  C    -0.366510  3.362880  2.688386
  C    -0.328485  7.000469  2.451891
  C    -1.456622  2.658538  2.062044
  C    -1.457653  6.402829  1.883726
  N     0.716161  3.544370  1.962264
  N     0.759245  7.205587  1.714842
  N    -1.173281  2.227459  0.850843
  N    -1.286910  5.992926  0.631664
  N    -2.263183  3.055639  4.425382
  N    -2.177080  7.024440  4.378699
  S    -2.797870  2.306846  3.081924
  S    -2.823632  6.224910  3.070457
  S     0.295981  2.868446  0.459158
  S     0.282578  6.470618  0.204740
  S    -0.746785  3.704888  4.432482
  S    -0.585063  7.481713  4.171250
