16  
    
  C     0.001116  3.591750  2.448088
  C     0.416894  7.477679  2.771794
  C    -1.247614  3.099390  1.894354
  C    -0.791985  6.905768  2.210093
  N     0.921956  3.957972  1.544771
  N     1.423045  7.560494  1.903549
  N    -1.105621  2.716628  0.599336
  N    -0.699708  6.724672  0.910637
  N    -1.708215  3.512365  4.368514
  N    -1.444161  7.326443  4.613673
  S    -2.530628  2.941920  2.992183
  S    -2.151507  6.711140  3.207509
  S     0.447756  3.172673  0.152089
  S     0.849557  7.214214  0.364836
  S    -0.187690  4.029904  4.136766
  S     0.111177  7.793440  4.507789
