16  
    
  C     0.094163  3.524656  2.408930
  C     0.295685  7.565071  2.801750
  C    -1.233499  3.313971  1.799314
  C    -0.824004  6.851132  2.201454
  N     1.054643  3.708216  1.476122
  N     1.338606  7.625575  1.993065
  N    -1.155231  3.057747  0.473625
  N    -0.609275  6.499760  0.908150
  N    -1.674388  3.510490  4.286475
  N    -1.427911  7.291045  4.701997
  S    -2.521214  3.041608  2.934902
  S    -2.142118  6.601442  3.373002
  S     0.428998  3.371024  0.003884
  S     0.957985  7.079284  0.525550
  S    -0.073193  3.884011  4.031269
  S     0.070798  7.948638  4.487896
