16  
    
  C    -5.502952  1.150708  1.301446
  C    -5.292426  5.256629  1.408977
  C    -6.656495  0.497362  0.600842
  C    -6.351245  4.490545  0.754262
  N    -4.437110  1.452766  0.561769
  N    -4.252793  5.567464  0.602460
  N    -6.529345  0.476007 -0.740716
  N    -6.169974  4.248218 -0.547007
  N    -7.297643  0.671339  3.038249
  N    -6.943452  4.411808  3.252412
  S    -7.960154  0.021855  1.653973
  S    -7.557501  3.792961  1.814909
  S    -4.948198  1.028794 -1.027864
  S    -4.682758  4.829852 -0.856922
  S    -5.689441  1.111265  3.088003
  S    -5.483189  5.219715  3.152918
