16  
    
  C    -1.911062  2.406563  2.564905
  C    -1.687959  5.820413  2.309374
  C    -3.076891  2.071827  1.852554
  C    -2.906157  5.725089  1.597707
  N    -0.871471  2.589054  1.765891
  N    -0.528501  5.867229  1.603761
  N    -2.989821  2.001492  0.497245
  N    -2.753206  5.690065  0.250278
  N    -3.694777  2.135321  4.386400
  N    -3.625648  5.537175  4.155855
  S    -4.461704  1.980607  2.943682
  S    -4.302092  5.334778  2.648553
  S    -1.434306  2.476242  0.209030
  S    -1.095759  5.888287  0.024055
  S    -2.065993  2.453108  4.300758
  S    -2.024847  5.880598  4.029105
