16  
    
  C    -1.530381  2.820482  2.018205
  C    -1.157978  6.778725  2.191362
  C    -2.599682  2.011485  1.401523
  C    -2.456124  6.393604  1.649212
  N    -0.506474  3.172063  1.262374
  N    -0.179342  6.821290  1.299362
  N    -2.322485  1.794973  0.132452
  N    -2.479629  6.246607  0.318741
  N    -3.366347  2.396287  3.862180
  N    -2.868976  6.828593  4.192040
  S    -3.882944  1.640806  2.478503
  S    -3.686960  6.307632  2.887260
  S    -0.825373  2.445203 -0.186895
  S    -0.904807  6.428943 -0.201044
  S    -1.875611  3.122499  3.734305
  S    -1.285782  7.112178  3.908811
