16  
    
  C    -5.354929  1.140965  1.416481
  C    -5.290803  4.593057  1.573049
  C    -6.599722  0.842354  0.742538
  C    -6.620056  4.170986  1.090737
  N    -4.323502  1.243856  0.625674
  N    -4.372626  4.797564  0.614379
  N    -6.539007  0.525782 -0.567252
  N    -6.708267  4.004750 -0.227801
  N    -7.041295  1.017942  3.321743
  N    -6.964446  4.606908  3.661090
  S    -7.893351  0.631225  1.918889
  S    -7.858466  4.148820  2.327296
  S    -4.865846  0.778193 -0.912817
  S    -5.214767  4.353349 -0.797444
  S    -5.457056  1.370793  3.179752
  S    -5.343724  4.733672  3.317277
