16  
    
  C    -0.347816  3.355458  2.640082
  C    -0.303500  6.882082  2.430053
  C    -1.500792  2.667926  2.079099
  C    -1.382588  6.190624  1.894896
  N     0.734729  3.360860  1.833070
  N     0.667867  7.245918  1.577276
  N    -1.444743  2.444247  0.768472
  N    -1.313294  5.904763  0.583183
  N    -2.055557  2.853950  4.620716
  N    -1.996633  6.832529  4.417542
  S    -2.856125  2.496881  3.195293
  S    -2.684035  5.965034  3.200207
  S     0.063326  2.942314  0.312389
  S     0.185428  6.496660  0.090721
  S    -0.483885  3.437850  4.351784
  S    -0.508863  7.496115  4.078499
