16  
    
  C    -0.195841  3.136776  2.622863
  C    -0.130821  6.986362  2.424542
  C    -1.452057  2.759709  2.030224
  C    -1.313303  6.444919  1.730095
  N     0.810283  3.360489  1.765483
  N     0.884188  7.259993  1.616837
  N    -1.353740  2.431648  0.758667
  N    -1.129688  6.406119  0.430543
  N    -1.910921  2.860710  4.508582
  N    -1.866412  6.398711  4.188643
  S    -2.646008  2.255291  3.181724
  S    -2.596511  5.986672  2.726888
  S     0.163285  2.936361  0.274004
  S     0.363275  7.004528  0.059827
  S    -0.410992  3.479151  4.343828
  S    -0.328039  7.055869  4.122909
