16  
    
  C    -6.131445  0.943783  1.431436
  C    -6.136862  4.463630  1.905255
  C    -7.287606  0.308629  0.903752
  C    -7.318126  4.063084  1.082810
  N    -5.268072  1.319399  0.471296
  N    -5.085426  4.705904  1.096260
  N    -7.219864  0.121215 -0.420286
  N    -7.096298  3.994260 -0.237835
  N    -7.540425  0.185218  3.494476
  N    -8.066472  4.180130  3.503474
  S    -8.330049 -0.407576  2.115306
  S    -8.643241  3.608576  2.005897
  S    -5.829734  0.817480 -0.968959
  S    -5.521605  4.363530 -0.455543
  S    -6.056707  0.967048  3.165439
  S    -6.417855  4.404617  3.601279
