16  
    
  C     2.248389  4.793414  3.165558
  C     2.015621  8.985252  3.426847
  C     1.023164  4.275965  2.541870
  C     0.850000  8.420956  2.742066
  N     3.280470  4.981875  2.301232
  N     3.084362  9.239540  2.645217
  N     0.952463  4.434277  1.195342
  N     1.047225  8.163072  1.443429
  N     0.525757  4.267714  5.048855
  N     0.415255  8.473209  5.270343
  S    -0.301228  3.995732  3.720308
  S    -0.511782  8.339929  3.884933
  S     2.504708  4.969913  0.795550
  S     2.688211  8.579203  1.171302
  S     2.100705  4.698038  4.915208
  S     1.943600  9.004789  5.101060
