16  
    
  C     2.009348  4.354997  3.022053
  C     2.051956  7.870149  3.174921
  C     0.779709  4.044897  2.389479
  C     0.863283  7.529790  2.405095
  N     3.033708  4.372067  2.211263
  N     3.152624  8.057638  2.449374
  N     0.826279  3.678495  1.129836
  N     1.005314  7.465943  1.082985
  N     0.252427  4.307500  4.946195
  N     0.098952  7.942635  4.903411
  S    -0.506949  3.937396  3.533854
  S    -0.553566  7.389708  3.442091
  S     2.487915  3.970327  0.701637
  S     2.697509  7.754142  0.876920
  S     1.915809  4.815120  4.729047
  S     1.718995  8.274770  4.851296
