16  
    
  C     2.935365  5.272298  3.208023
  C     2.787801  9.198256  3.469744
  C     1.812033  4.474994  2.714212
  C     1.775337  8.429040  2.795585
  N     3.827889  5.553715  2.268108
  N     3.842592  9.526719  2.699934
  N     1.789140  4.317753  1.398865
  N     2.053375  8.235623  1.502203
  N     1.329849  4.677790  5.262417
  N     1.141024  8.570597  5.337966
  S     0.518614  4.166194  3.874469
  S     0.447918  7.897580  3.930668
  S     3.266955  4.843608  0.838150
  S     3.437172  9.046238  1.181661
  S     2.750133  5.495112  4.959233
  S     2.696875  9.159621  5.156664
