16  
    
  C     1.136825  4.320164  2.999881
  C     1.683508  8.538988  2.983695
  C    -0.059048  3.969248  2.193017
  C     0.463292  8.143346  2.350005
  N     2.146167  4.801881  2.250943
  N     2.705590  8.492223  2.152840
  N     0.169563  3.815542  0.861086
  N     0.545667  7.887963  1.062401
  N    -0.754503  3.957643  4.737551
  N    -0.046585  8.376058  4.803610
  S    -1.391969  3.615741  3.264222
  S    -0.849525  8.041055  3.426321
  S     1.734346  4.331579  0.698438
  S     2.082788  8.161816  0.600523
  S     0.858213  4.368853  4.710597
  S     1.535981  8.844366  4.662838
