16  
    
  C    -1.949108  2.252322  2.050501
  C    -1.997529  5.901300  2.126545
  C    -3.188113  1.887200  1.354909
  C    -3.250757  5.699885  1.512442
  N    -0.915968  2.352896  1.220707
  N    -0.964840  6.005131  1.306030
  N    -3.108133  1.844326  0.014068
  N    -3.220088  5.580230  0.144177
  N    -3.780179  2.391278  3.801705
  N    -3.716685  5.691628  4.100017
  S    -4.519687  1.775124  2.453438
  S    -4.556643  5.551207  2.718214
  S    -1.509523  2.131612 -0.357008
  S    -1.623409  5.670899 -0.204071
  S    -2.138030  2.458253  3.773033
  S    -2.116405  6.063568  3.896639
