16  
    
  C    -6.074144  0.753971  1.345875
  C    -5.986768  4.409069  1.738484
  C    -7.302904  0.324930  0.724440
  C    -7.228143  3.963991  1.053246
  N    -5.159724  1.184833  0.500255
  N    -5.017121  4.778760  0.910296
  N    -7.185234  0.273475 -0.595902
  N    -7.094455  3.893089 -0.258261
  N    -7.715297  0.234459  3.223126
  N    -7.771414  3.722295  3.556886
  S    -8.529323  0.003189  1.809419
  S    -8.460699  3.346611  2.059700
  S    -5.714955  0.906192 -0.988710
  S    -5.608695  4.442609 -0.611015
  S    -6.101568  0.795440  3.091850
  S    -6.239053  4.348694  3.422536
