16  
    
  C     2.869826  5.152552  3.178370
  C     2.928492  9.156847  3.650790
  C     1.718109  4.403514  2.650753
  C     1.884125  8.401519  2.989524
  N     3.887786  5.295685  2.355944
  N     3.901074  9.594687  2.837602
  N     1.812645  4.230359  1.329181
  N     2.048002  8.339770  1.695031
  N     1.261508  5.004645  5.091729
  N     1.095581  8.646483  5.483882
  S     0.460724  4.172536  3.810014
  S     0.482646  8.155752  3.948520
  S     3.309159  4.852611  0.887744
  S     3.459859  9.017929  1.327249
  S     2.845547  5.472271  4.853639
  S     2.617824  9.374264  5.430931
