16  
    
  C     0.071406  3.387915  2.426127
  C    -0.010173  7.189794  2.734466
  C    -1.050954  2.897659  1.771636
  C    -1.204109  6.742514  2.056884
  N     1.142143  3.523016  1.639514
  N     1.027923  7.449196  1.932587
  N    -0.964070  2.913136  0.440438
  N    -1.034303  6.743750  0.746792
  N    -1.682437  2.914357  4.241410
  N    -1.785223  6.842279  4.639063
  S    -2.351822  2.421636  2.802552
  S    -2.515497  6.477064  3.195675
  S     0.614189  3.350543  0.067486
  S     0.580070  7.080267  0.420075
  S    -0.098915  3.493596  4.180447
  S    -0.183048  7.324264  4.469245
