16  
    
  C    -0.213019  3.121667  2.612528
  C    -0.150002  6.977495  2.395462
  C    -1.436679  2.729794  2.050437
  C    -1.301191  6.462241  1.728264
  N     0.786085  3.342141  1.758357
  N     0.862430  7.256367  1.610927
  N    -1.371969  2.460742  0.757942
  N    -1.113043  6.367634  0.439801
  N    -1.897714  2.866021  4.518984
  N    -1.850689  6.406851  4.179451
  S    -2.648797  2.262493  3.175681
  S    -2.607786  5.982287  2.726809
  S     0.152509  2.933675  0.268330
  S     0.363866  6.996922  0.078403
  S    -0.404440  3.479881  4.357085
  S    -0.330849  7.066974  4.106968
