16  
    
  C    -2.411069  1.990584  2.030335
  C    -2.564589  5.725578  2.072424
  C    -3.717422  1.755374  1.445683
  C    -3.794676  5.428733  1.372866
  N    -1.363055  1.836403  1.207376
  N    -1.520477  5.749481  1.310021
  N    -3.649159  1.676578  0.101670
  N    -3.703563  5.128585  0.076624
  N    -4.097478  2.273553  4.036689
  N    -4.384648  5.453874  3.910967
  S    -4.954431  2.115922  2.631787
  S    -5.128688  5.090275  2.486730
  S    -2.064881  1.737669 -0.337172
  S    -2.099358  5.454508 -0.241177
  S    -2.428969  2.372908  3.719345
  S    -2.715292  5.833963  3.792111
