16  
    
  C     0.161446  3.380201  2.292334
  C     0.212694  7.374035  2.856859
  C    -1.083038  3.222889  1.670580
  C    -0.901063  6.688133  2.229579
  N     1.087330  3.809513  1.447497
  N     1.255698  7.543584  2.060296
  N    -1.030804  3.116987  0.326579
  N    -0.718332  6.464466  0.907861
  N    -1.488520  3.037617  4.208110
  N    -1.684296  7.235062  4.717417
  S    -2.353678  2.926883  2.835874
  S    -2.342747  6.575417  3.377845
  S     0.566647  3.475718 -0.071381
  S     0.829229  7.023222  0.579928
  S     0.125274  3.414978  4.062729
  S    -0.129501  7.786026  4.532124
