16  
    
  C    -2.169128  2.433075  1.944303
  C    -2.162778  5.819673  2.249462
  C    -3.487476  2.090162  1.361724
  C    -3.388160  5.426099  1.583709
  N    -1.240045  2.609670  1.007751
  N    -1.149455  5.873026  1.406185
  N    -3.408856  1.734015  0.074294
  N    -3.338521  5.377283  0.269107
  N    -3.865675  2.364189  3.907179
  N    -3.993962  5.925372  4.034116
  S    -4.711051  1.975957  2.548056
  S    -4.709308  5.429418  2.631019
  S    -1.843106  2.049260 -0.393730
  S    -1.747207  5.749583 -0.168315
  S    -2.248677  2.638153  3.715144
  S    -2.381201  6.141967  3.920221
