16  
    
  C     2.185070  4.376373  2.925486
  C     2.110234  8.581818  3.050668
  C     0.894459  4.156202  2.299029
  C     0.982165  7.878564  2.508999
  N     3.217574  4.672433  2.097881
  N     3.168823  8.728864  2.270591
  N     0.988067  3.994079  0.969827
  N     1.217667  7.367231  1.323554
  N     0.331736  4.391844  4.843196
  N     0.395452  8.471737  4.937800
  S    -0.369609  3.798651  3.410067
  S    -0.384858  7.867642  3.610725
  S     2.571736  4.240996  0.603129
  S     2.755719  7.951940  0.806760
  S     1.981947  4.673127  4.718018
  S     1.959371  9.010623  4.728937
