16  
    
  C     2.191174  4.436703  3.101097
  C     2.005229  8.277608  3.137751
  C     1.091158  4.044676  2.297544
  C     0.862596  7.631764  2.569055
  N     3.311599  4.296418  2.421359
  N     3.050417  8.277104  2.290408
  N     1.287784  3.787661  1.010517
  N     0.961220  7.179424  1.318032
  N     0.231007  4.477141  4.724015
  N     0.050116  8.481527  4.913331
  S    -0.380845  3.819186  3.197124
  S    -0.508712  7.528524  3.642315
  S     2.977926  4.015703  0.804009
  S     2.542756  7.448377  0.955027
  S     1.903056  4.731511  4.756486
  S     1.661855  9.033488  4.693926
