16  
    
  C     0.598782  3.937310  2.949599
  C     0.682266  7.453159  2.781966
  C    -0.558994  3.345593  2.365748
  C    -0.535092  6.894763  2.177734
  N     1.646818  3.989469  2.163581
  N     1.680756  7.735129  1.948762
  N    -0.389112  2.814828  1.193622
  N    -0.403185  6.633372  0.854743
  N    -1.129248  3.990437  4.821241
  N    -1.031569  7.299251  4.695147
  S    -1.827809  3.241362  3.480970
  S    -1.831096  6.737576  3.289611
  S     1.139079  3.365096  0.672417
  S     1.161148  7.201235  0.493371
  S     0.426638  4.385895  4.672593
  S     0.545998  7.836751  4.428890
