16  
    
  C    -1.463840  2.591485  2.265150
  C    -1.433004  6.573275  2.233290
  C    -2.552735  1.970706  1.604895
  C    -2.623362  6.093777  1.671549
  N    -0.408420  2.932721  1.532038
  N    -0.480483  6.767678  1.331244
  N    -2.346474  1.755418  0.323980
  N    -2.534492  5.810456  0.355031
  N    -3.428057  2.452349  3.961608
  N    -3.021301  6.214869  4.235806
  S    -3.965313  1.744709  2.576105
  S    -3.934767  6.081386  2.834260
  S    -0.796726  2.329463  0.000198
  S    -0.990084  6.182341 -0.115744
  S    -1.878168  3.024462  3.921728
  S    -1.499436  6.778099  3.918998
