16  
    
  C    -6.003534  0.847106  1.332841
  C    -6.036264  4.284538  1.555338
  C    -7.219954  0.642025  0.652894
  C    -7.207810  3.864060  0.899034
  N    -4.944878  0.994585  0.540671
  N    -5.072708  4.775388  0.734296
  N    -7.060413  0.568607 -0.682918
  N    -7.155199  3.878655 -0.470423
  N    -7.812841  0.273838  3.151190
  N    -7.652656  3.881928  3.475697
  S    -8.600671  0.279783  1.744769
  S    -8.375978  3.345973  2.068293
  S    -5.445383  0.802446 -1.027562
  S    -5.644659  4.497618 -0.791332
  S    -6.196704  0.642963  3.098094
  S    -6.037015  4.187506  3.323836
