16  
    
  C     2.168019  4.525620  3.068446
  C     1.944536  8.131997  3.154557
  C     1.023444  3.986274  2.321011
  C     0.845717  7.487899  2.489599
  N     3.214193  4.608974  2.240922
  N     3.002192  8.268844  2.379887
  N     1.251362  3.568360  1.062836
  N     1.141374  7.100556  1.259665
  N     0.291655  4.415474  4.718793
  N     0.103670  8.215633  4.864954
  S    -0.421858  3.974647  3.306269
  S    -0.597734  7.603544  3.506570
  S     2.756069  4.037025  0.753364
  S     2.703726  7.479307  0.965189
  S     1.878864  4.824565  4.788458
  S     1.716042  8.564924  4.783709
