16  
    
  C    -5.532636  1.069225  1.308959
  C    -5.168965  5.044754  1.371546
  C    -6.685636  0.540114  0.633164
  C    -6.228584  4.232165  0.733601
  N    -4.474532  1.353321  0.559758
  N    -4.259291  5.434929  0.529325
  N    -6.523778  0.402028 -0.651848
  N    -6.071270  4.146718 -0.576315
  N    -7.274110  0.590483  3.182869
  N    -6.793416  4.476913  3.293007
  S    -7.934865  0.054608  1.738865
  S    -7.439625  3.792675  1.940475
  S    -4.974705  0.935046 -1.004798
  S    -4.675305  4.970944 -1.015092
  S    -5.747598  1.150315  3.035863
  S    -5.377971  5.307344  3.067477
