16  
    
  C    -0.683353  3.094542  2.760017
  C    -1.360576  6.578674  2.600546
  C    -1.912508  2.666036  2.114082
  C    -2.445015  5.953746  1.840357
  N     0.301683  3.318186  1.865720
  N    -0.305654  6.859542  1.840300
  N    -1.744020  2.333085  0.829141
  N    -2.242079  5.940283  0.530944
  N    -2.474589  3.076477  4.623755
  N    -3.187058  6.083499  4.329616
  S    -3.323533  2.778590  3.201046
  S    -3.764227  5.603709  2.877220
  S    -0.159251  2.628807  0.469184
  S    -0.676572  6.585365  0.248745
  S    -0.819247  3.391522  4.408666
  S    -1.626578  6.627962  4.313805
