16  
    
  C    -3.342780  1.642766  1.620257
  C    -3.791880  5.354680  1.598570
  C    -4.510427  1.154225  1.005604
  C    -5.049706  4.887005  1.056700
  N    -2.358014  1.927722  0.773204
  N    -2.815404  5.600418  0.717302
  N    -4.491251  0.858819 -0.307537
  N    -4.960996  4.803394 -0.277025
  N    -5.072183  1.468702  3.517447
  N    -5.560077  5.230181  3.564417
  S    -5.861815  0.945107  2.109015
  S    -6.379603  4.642660  2.222557
  S    -2.988635  1.432792 -0.756928
  S    -3.404572  5.214649 -0.735618
  S    -3.579044  2.171420  3.208193
  S    -3.925415  5.563732  3.337666
