16  
    
  C    -1.510246  2.972501  1.995699
  C    -0.982958  6.966795  2.290889
  C    -2.573734  2.283535  1.350853
  C    -2.261218  6.599629  1.781862
  N    -0.566479  3.380451  1.191185
  N    -0.009508  7.149100  1.376904
  N    -2.401722  2.157545  0.054463
  N    -2.309015  6.327277  0.484937
  N    -3.292721  2.578868  3.808307
  N    -2.709139  6.700397  4.381193
  S    -3.868671  1.848459  2.437864
  S    -3.572579  6.672609  2.962831
  S    -0.940907  2.802564 -0.330177
  S    -0.773871  6.696772 -0.079947
  S    -1.862851  3.399075  3.681212
  S    -1.091217  7.117355  4.084660
