16  
    
  C    -0.812278  3.173250  2.401281
  C    -0.820181  6.339382  2.458913
  C    -1.998089  2.643496  1.844544
  C    -2.039687  5.988797  1.723795
  N     0.205042  3.220342  1.555036
  N     0.262117  6.588750  1.717916
  N    -1.927255  2.408917  0.538773
  N    -1.781939  5.805917  0.446535
  N    -2.431450  2.774572  4.378266
  N    -2.731762  6.409375  4.230931
  S    -3.302417  2.598998  2.998613
  S    -3.479945  5.815983  2.880715
  S    -0.418753  2.878276  0.068765
  S    -0.140659  6.193449  0.138427
  S    -0.835623  3.255355  4.163715
  S    -1.134201  6.631793  4.166333
