16  
    
  C    -0.898057  3.104831  2.465875
  C    -0.630978  6.640483  2.366876
  C    -2.219008  2.884800  1.815550
  C    -1.812835  6.177052  1.697086
  N     0.152446  3.016354  1.666888
  N     0.453604  6.720599  1.547477
  N    -2.114547  2.623344  0.535448
  N    -1.662215  6.047075  0.386688
  N    -2.709043  3.124173  4.292423
  N    -2.516508  6.410776  4.285095
  S    -3.514426  2.714862  2.921529
  S    -3.251258  6.074127  2.786638
  S    -0.502993  2.791423  0.128946
  S    -0.085720  6.280406 -0.005352
  S    -1.087538  3.398525  4.198828
  S    -0.879917  6.677446  4.141055
