16  
    
  C     3.125121  4.926469  3.411362
  C     2.959915  9.028242  3.804239
  C     1.944883  4.666892  2.691266
  C     1.674748  8.562087  3.299998
  N     4.170443  5.138213  2.619717
  N     3.977686  8.995589  2.978836
  N     2.049991  4.601038  1.394437
  N     1.761773  8.168057  2.019675
  N     1.194389  5.020701  5.115169
  N     1.462458  9.096607  5.875279
  S     0.483228  4.675295  3.636837
  S     0.446596  8.762099  4.558783
  S     3.615349  4.872855  1.085449
  S     3.347486  8.547872  1.525322
  S     2.843128  5.269678  5.056658
  S     3.102373  9.310415  5.429080
