16  
    
  C    -5.218553  1.022282  1.796527
  C    -5.207189  4.915517  1.304238
  C    -6.436362  0.482205  1.150014
  C    -6.368663  4.398377  0.633158
  N    -4.194063  1.219142  0.971347
  N    -4.095503  4.899991  0.595834
  N    -6.332457  0.340384 -0.153907
  N    -6.153682  4.144643 -0.652268
  N    -7.071316  1.051795  3.589474
  N    -6.956063  4.781055  3.144004
  S    -7.891520  0.536683  2.246268
  S    -7.745487  4.335986  1.722547
  S    -4.798429  0.807757 -0.549982
  S    -4.531643  4.454185 -0.920609
  S    -5.493619  1.331031  3.469440
  S    -5.393414  5.282262  3.000946
