16  
    
  C    -1.241460  3.480863  2.129660
  C    -1.062251  7.093653  2.653714
  C    -2.384584  2.705073  1.624556
  C    -2.349849  6.907151  1.976842
  N    -0.320704  3.648519  1.200004
  N    -0.036469  7.256316  1.806810
  N    -2.363392  2.562989  0.311228
  N    -2.325252  6.714159  0.651200
  N    -2.745438  2.917527  4.161915
  N    -2.761468  6.602520  4.451035
  S    -3.589947  2.374274  2.809556
  S    -3.654701  6.661124  3.067143
  S    -0.975875  3.205273 -0.251239
  S    -0.706397  6.868298  0.319994
  S    -1.177561  3.465620  3.840981
  S    -1.188542  7.002285  4.349370
