16  
    
  C    -2.758193  2.265175  1.957118
  C    -2.632425  5.802561  2.094136
  C    -3.966822  2.025633  1.268717
  C    -3.832819  5.382366  1.440204
  N    -1.669838  2.364031  1.194803
  N    -1.546651  5.854774  1.300911
  N    -3.826458  1.974528 -0.065048
  N    -3.630012  5.063258  0.162452
  N    -4.574328  1.888562  3.791670
  N    -4.468690  5.693465  3.892735
  S    -5.342774  1.711607  2.306081
  S    -5.242630  5.300068  2.483823
  S    -2.156873  2.107078 -0.372050
  S    -2.024740  5.425700 -0.201878
  S    -2.961773  2.441425  3.740070
  S    -2.857373  6.209347  3.694804
