16  
    
  C    -4.458729  0.943117  1.704864
  C    -4.771730  4.532335  1.535611
  C    -5.717823  0.617515  1.032010
  C    -5.944016  4.204271  0.782084
  N    -3.433317  1.231352  0.903227
  N    -3.700337  4.984405  0.842620
  N    -5.677787  0.766821 -0.298536
  N    -5.821844  4.500202 -0.529721
  N    -6.245844  0.659069  3.628424
  N    -6.630169  4.290452  3.339271
  S    -7.094708  0.493735  2.180745
  S    -7.360506  3.907169  1.925569
  S    -4.055362  1.288227 -0.630660
  S    -4.246149  4.981497 -0.724811
  S    -4.635494  1.057105  3.467437
  S    -4.986976  4.448500  3.320618
