16  
    
  C     2.431980  5.016128  3.514394
  C     2.479166  8.636327  3.451372
  C     1.296322  4.465926  2.818449
  C     1.271161  8.047179  2.912041
  N     3.540733  4.971200  2.787578
  N     3.386280  8.886461  2.511759
  N     1.503857  4.368318  1.515525
  N     1.295640  7.888961  1.560508
  N     0.679207  4.502553  5.219148
  N     0.946085  8.490347  5.420166
  S    -0.027628  3.937129  3.839265
  S     0.024838  7.867045  4.167709
  S     3.106425  4.684918  1.215848
  S     2.832353  8.309156  1.070670
  S     2.229008  5.059149  5.208446
  S     2.438584  8.990282  5.105775
