16  
    
  C    -5.531339  0.932376  1.346075
  C    -4.988275  4.903181  1.367971
  C    -6.697380  0.426947  0.696304
  C    -6.151355  4.168729  0.815808
  N    -4.549040  1.253452  0.505785
  N    -4.219105  5.398652  0.419481
  N    -6.507199  0.329266 -0.597197
  N    -6.111777  4.076828 -0.489936
  N    -7.201695  0.459272  3.238849
  N    -6.644515  4.370452  3.273343
  S    -8.019979  0.123264  1.777649
  S    -7.433483  3.859763  1.916780
  S    -5.003858  0.862309 -0.996623
  S    -4.824760  4.950013 -1.067652
  S    -5.695508  1.222940  3.116649
  S    -5.302184  5.335766  2.988680
