16  
    
  C    -6.062508  0.966148  1.490952
  C    -6.146963  4.490020  1.824546
  C    -7.151456  0.212782  0.915403
  C    -7.344167  4.062942  1.039196
  N    -5.149440  1.317819  0.586984
  N    -5.053954  4.659290  1.073102
  N    -7.199309  0.089499 -0.419481
  N    -7.086527  4.028326 -0.271843
  N    -7.470669  0.169900  3.467142
  N    -8.082719  4.239925  3.490051
  S    -8.299745 -0.291904  2.173658
  S    -8.721815  3.734791  2.039706
  S    -5.730577  0.791922 -0.929049
  S    -5.457950  4.411106 -0.509228
  S    -6.091093  1.007444  3.185912
  S    -6.426527  4.472612  3.517405
