16  
    
  C    -1.906880  2.453826  2.535466
  C    -1.833080  5.915864  2.330177
  C    -3.040584  1.901638  1.870400
  C    -3.064020  5.577744  1.707141
  N    -0.800184  2.601792  1.794745
  N    -0.900454  6.340469  1.461969
  N    -2.901113  1.869741  0.553890
  N    -3.009289  5.548940  0.363285
  N    -3.695379  2.082614  4.300900
  N    -3.389955  5.653100  4.247098
  S    -4.403141  1.610738  2.888525
  S    -4.300266  5.456663  2.852061
  S    -1.280875  2.224380  0.243081
  S    -1.446464  5.957180 -0.041258
  S    -2.103917  2.567491  4.280401
  S    -1.765446  6.113064  4.043587
