16  
    
  C     3.120661  5.260925  3.423895
  C     3.708606  8.977012  3.379598
  C     1.943848  4.698214  2.794450
  C     2.442345  8.464331  2.884572
  N     4.140568  5.449285  2.621219
  N     4.545047  9.184285  2.399504
  N     2.072423  4.429130  1.511616
  N     2.377558  8.412354  1.562163
  N     1.284346  5.014669  5.226875
  N     2.009989  8.923444  5.368156
  S     0.626453  4.300287  3.835534
  S     1.162460  8.544599  3.981461
  S     3.511524  5.019497  1.095459
  S     3.796844  8.766481  0.975148
  S     2.877778  5.492479  5.126502
  S     3.587298  9.461504  5.143561
