16  
    
  C     2.971415  5.208781  3.491334
  C     2.845465  8.706902  3.330424
  C     1.741642  4.793633  2.808445
  C     1.711546  8.150215  2.634039
  N     3.937741  5.577873  2.622511
  N     3.888027  9.132611  2.650080
  N     1.852301  4.660065  1.491724
  N     1.935257  8.199594  1.323568
  N     1.040968  5.116316  5.239779
  N     1.188265  8.319597  5.170732
  S     0.430333  4.373827  3.847473
  S     0.406216  7.805192  3.814909
  S     3.372189  5.232663  1.090005
  S     3.461077  8.883739  1.099247
  S     2.727589  5.360531  5.237554
  S     2.662302  9.008033  5.048633
