16  
    
  C     0.271970  3.547182  2.824021
  C     0.289879  7.468258  2.697677
  C    -0.943180  3.063809  2.093729
  C    -1.002444  7.347006  2.035613
  N     1.206933  4.045621  1.991793
  N     1.347146  7.431782  1.879511
  N    -0.705158  2.890828  0.770488
  N    -0.935881  7.431449  0.705689
  N    -1.627412  2.990006  4.569974
  N    -1.400782  7.415457  4.623809
  S    -2.335545  2.685020  3.112168
  S    -2.298729  7.297919  3.277293
  S     0.773734  3.489401  0.486514
  S     0.665444  7.617937  0.346878
  S    -0.067219  3.684496  4.490110
  S     0.241868  7.577970  4.410346
