16  
    
  C    -0.366792  3.411928  2.616139
  C    -0.361110  6.946344  2.446942
  C    -1.663798  3.119342  2.050204
  C    -1.634416  6.411008  1.849337
  N     0.667365  3.376988  1.776756
  N     0.577281  7.199816  1.525789
  N    -1.621785  3.016120  0.720424
  N    -1.654025  6.359001  0.516083
  N    -2.059791  3.223603  4.612794
  N    -2.064722  6.700746  4.301021
  S    -2.909686  2.899126  3.193583
  S    -2.864043  6.204331  2.957155
  S    -0.054038  3.241162  0.250772
  S    -0.142355  6.724227  0.081415
  S    -0.407991  3.647117  4.377234
  S    -0.454006  7.124789  4.123154
