16  
    
  C    -1.744897  2.300638  1.888323
  C    -1.800075  6.371758  2.054727
  C    -2.991220  1.963529  1.295054
  C    -2.941594  5.807876  1.440549
  N    -0.688360  2.473544  1.101225
  N    -0.693230  6.512252  1.333233
  N    -2.915797  2.009670 -0.038470
  N    -2.720327  5.513710  0.101886
  N    -3.483628  2.346904  3.761244
  N    -3.588763  6.164361  3.973063
  S    -4.296105  1.843637  2.440737
  S    -4.206132  5.554792  2.575184
  S    -1.326022  2.216843 -0.442004
  S    -1.073928  5.906185 -0.146244
  S    -1.832863  2.400863  3.669940
  S    -2.126089  6.895483  3.781967
