16  
    
  C    -1.516222  2.687678  2.291285
  C    -1.475201  6.445226  2.237648
  C    -2.600407  2.050616  1.624591
  C    -2.690153  5.947001  1.659623
  N    -0.354250  2.741899  1.594183
  N    -0.482940  6.751077  1.373481
  N    -2.352205  1.843736  0.319556
  N    -2.627555  5.736187  0.328107
  N    -3.448718  2.455776  4.037364
  N    -3.156511  6.212587  4.217085
  S    -4.044791  1.763924  2.613699
  S    -4.016029  5.931077  2.841502
  S    -0.803843  2.313015  0.056430
  S    -1.014980  6.139945 -0.132539
  S    -1.881326  3.040167  3.968000
  S    -1.551165  6.700018  4.066756
