16  
    
  C     0.832211  4.127305  2.426185
  C     1.525188  8.265893  3.241389
  C    -0.296202  3.425405  1.900747
  C     0.277841  8.023250  2.656349
  N     1.959750  4.265847  1.678188
  N     2.533552  8.401534  2.405884
  N    -0.179985  3.089843  0.612183
  N     0.321683  8.070734  1.340270
  N    -0.893396  3.789550  4.387837
  N    -0.271299  8.203844  5.142762
  S    -1.609655  3.126284  3.023366
  S    -1.045774  7.973940  3.701533
  S     1.340756  3.655191  0.184376
  S     1.885291  8.255058  0.826840
  S     0.728208  4.171083  4.136093
  S     1.408475  8.270572  4.973308
