16  
    
  C    -3.134674  1.913828  1.772228
  C    -3.155284  5.839320  2.038041
  C    -4.195732  1.309275  1.033097
  C    -4.416066  5.425055  1.464362
  N    -2.147355  2.295647  1.007183
  N    -2.207420  6.035909  1.165403
  N    -3.983679  1.163717 -0.266861
  N    -4.401676  5.413863  0.157697
  N    -5.056352  1.577203  3.463918
  N    -4.655647  5.384569  3.990662
  S    -5.689654  1.113873  2.029206
  S    -5.615129  5.212954  2.619428
  S    -2.440924  1.860463 -0.542568
  S    -2.879834  5.775571 -0.326991
  S    -3.553503  2.184106  3.407420
  S    -3.112763  5.887623  3.786942
