16  
    
  C    -5.530471  0.895945  1.457299
  C    -5.293820  5.022072  1.242305
  C    -6.716373  0.455865  0.787523
  C    -6.499398  4.418313  0.719281
  N    -4.592759  1.122793  0.570637
  N    -4.415994  5.301869  0.290602
  N    -6.579929  0.241782 -0.524144
  N    -6.360316  4.127936 -0.563557
  N    -7.319574  0.831919  3.305964
  N    -6.723996  4.387262  3.297839
  S    -8.044296  0.159023  1.883144
  S    -7.582775  3.875689  1.976920
  S    -5.035104  0.662362 -0.947296
  S    -4.878079  4.688113 -1.182700
  S    -5.663144  1.042604  3.190694
  S    -5.258818  5.045680  2.977989
