16  
    
  C    -0.287164  3.225398  2.550370
  C    -0.246883  7.012700  2.312286
  C    -1.600780  2.848241  1.980407
  C    -1.485460  6.577509  1.693270
  N     0.606651  3.518545  1.624862
  N     0.756293  7.165244  1.462534
  N    -1.575382  2.664235  0.678448
  N    -1.487660  6.484585  0.378583
  N    -2.048830  3.195749  4.538947
  N    -1.931608  6.720538  4.212581
  S    -2.913882  2.870181  3.090330
  S    -2.815963  6.533579  2.819770
  S    -0.050096  3.012839  0.158670
  S     0.069726  6.861281 -0.065354
  S    -0.421357  3.462852  4.246289
  S    -0.329897  7.161153  4.057372
