16  
    
  C    -2.410825  2.132884  2.100178
  C    -2.574862  5.609504  2.074229
  C    -3.683020  1.879404  1.484857
  C    -3.861355  5.265738  1.465755
  N    -1.354825  2.096062  1.266762
  N    -1.544826  5.898542  1.236320
  N    -3.614587  1.826751  0.154096
  N    -3.754480  5.169966  0.127276
  N    -4.134216  2.169981  4.001002
  N    -4.410158  5.421776  3.973059
  S    -4.972818  1.974823  2.578970
  S    -5.194169  4.934045  2.616967
  S    -2.047924  1.884602 -0.263516
  S    -2.190149  5.549484 -0.296140
  S    -2.449412  2.340210  3.843709
  S    -2.740033  5.715849  3.818835
