16  
    
  C    -2.607542  2.462355  2.298045
  C    -2.744934  5.829892  2.032059
  C    -3.682934  1.760099  1.703449
  C    -3.948546  5.439438  1.344211
  N    -1.604383  2.882442  1.497455
  N    -1.712567  6.073773  1.221891
  N    -3.616585  1.802973  0.367867
  N    -3.788750  5.290730  0.000827
  N    -4.396567  2.013106  4.195963
  N    -4.508656  5.528846  3.860669
  S    -5.062659  1.462996  2.747643
  S    -5.133872  4.911130  2.395289
  S    -2.202536  2.575747 -0.056354
  S    -2.172483  5.782480 -0.270794
  S    -2.789487  2.502062  4.070312
  S    -2.887034  5.779270  3.788135
