16  
    
  C     0.527100  3.982989  2.926977
  C     0.636297  7.541101  2.873630
  C    -0.732170  3.443195  2.376419
  C    -0.492882  7.106621  2.104444
  N     1.529702  3.816920  2.055713
  N     1.732793  7.626098  2.165012
  N    -0.678713  3.075397  1.094397
  N    -0.248083  6.956188  0.821759
  N    -1.135081  3.778175  4.943192
  N    -1.299378  7.217355  4.477453
  S    -1.939267  3.318352  3.567484
  S    -1.938583  6.894424  3.012735
  S     0.867207  3.386268  0.626035
  S     1.361486  7.218094  0.572818
  S     0.474615  4.129265  4.705603
  S     0.267235  7.725495  4.551769
