16  
    
  C     0.469015  3.556575  2.944360
  C     0.476675  7.591256  2.899545
  C    -0.872309  3.606476  2.395019
  C    -0.840108  7.254149  2.323132
  N     1.464661  3.870724  2.125523
  N     1.499125  7.543613  2.009392
  N    -0.835907  3.715473  1.078283
  N    -0.851335  7.142211  0.983647
  N    -1.178943  3.022283  4.891924
  N    -1.252580  7.603418  4.812224
  S    -2.134711  3.199964  3.522391
  S    -2.102403  7.176083  3.478608
  S     0.778710  3.930789  0.607407
  S     0.726563  7.350219  0.567606
  S     0.460348  3.345418  4.661807
  S     0.404364  7.824670  4.652778
