16  
    
  C    -2.329175  2.374844  1.962360
  C    -2.432079  6.283699  2.093390
  C    -3.681608  2.065691  1.415808
  C    -3.550208  5.604688  1.485659
  N    -1.382467  2.546465  1.067687
  N    -1.352475  6.305953  1.389418
  N    -3.618493  1.844696  0.105388
  N    -3.288096  5.138149  0.278846
  N    -4.004956  2.408226  3.936397
  N    -4.155754  5.835071  3.966607
  S    -4.928912  2.018365  2.597901
  S    -4.854858  5.447209  2.513540
  S    -2.072454  2.160151 -0.390606
  S    -1.710994  5.675528 -0.064221
  S    -2.454257  2.899721  3.625256
  S    -2.560894  6.216398  3.853369
