16  
    
  C     2.277803  4.494963  3.225383
  C     2.226124  8.969968  3.499606
  C     0.996842  4.339450  2.590108
  C     1.014897  8.514961  2.845977
  N     3.208187  4.978676  2.395907
  N     3.235503  9.038599  2.631866
  N     1.049135  4.465503  1.253627
  N     1.152614  8.173422  1.580177
  N     0.610787  4.251570  5.190233
  N     0.421307  8.500009  5.318727
  S    -0.253898  3.869301  3.695418
  S    -0.339733  8.299124  3.841867
  S     2.587975  4.905533  0.865055
  S     2.663719  8.600311  1.081096
  S     2.230831  4.769289  4.926221
  S     2.025191  9.068852  5.230585
