16  
    
  C    -3.561952  2.081276  1.663966
  C    -3.927520  5.258007  1.629550
  C    -4.722873  1.432237  1.070037
  C    -5.174464  4.704770  1.094497
  N    -2.574503  2.215698  0.752047
  N    -2.962492  5.417332  0.748593
  N    -4.673395  1.309417 -0.259469
  N    -5.097338  4.476683 -0.229915
  N    -5.152953  1.487070  3.557509
  N    -5.631356  5.004988  3.573496
  S    -5.960508  0.975348  2.204588
  S    -6.431001  4.430941  2.261160
  S    -3.139676  1.761530 -0.695482
  S    -3.537750  4.896314 -0.752738
  S    -3.664978  2.135741  3.359454
  S    -4.046351  5.573803  3.326677
