16  
    
  C    -5.489824  0.988451  1.360249
  C    -5.152154  5.037689  1.277377
  C    -6.672385  0.392225  0.784558
  C    -6.293839  4.236495  0.711129
  N    -4.410757  1.191474  0.586711
  N    -4.260338  5.374417  0.328423
  N    -6.616357  0.209593 -0.542200
  N    -6.289055  4.063633 -0.635295
  N    -7.266417  0.578668  3.232524
  N    -6.643454  4.369426  3.281368
  S    -8.003648  0.186209  1.856580
  S    -7.450400  3.885809  1.918476
  S    -5.082089  0.763941 -0.926052
  S    -4.892931  4.784364 -1.115367
  S    -5.709759  1.113565  3.083899
  S    -5.214517  5.198571  3.075341
