16  
    
  C    -0.838910  2.990938  2.440901
  C    -0.760061  6.616732  2.436013
  C    -2.103208  2.759608  1.849577
  C    -1.919548  6.151638  1.726446
  N     0.166823  3.248422  1.587377
  N     0.347393  6.684592  1.689724
  N    -2.042314  2.585722  0.511454
  N    -1.724626  5.827827  0.431965
  N    -2.561080  2.890545  4.420877
  N    -2.557508  6.327688  4.177162
  S    -3.406368  2.641495  2.993278
  S    -3.278842  5.977703  2.688222
  S    -0.441692  2.840768  0.089186
  S    -0.186649  6.176959  0.204729
  S    -0.939535  3.365191  4.149449
  S    -0.936541  6.632788  4.146162
