16  
    
  C    -6.037714  0.860805  1.362088
  C    -6.025468  4.485681  1.692639
  C    -7.230331  0.465923  0.688804
  C    -7.227220  3.931940  1.023880
  N    -5.021837  1.149724  0.571308
  N    -5.040497  4.780395  0.799058
  N    -7.193184  0.422499 -0.656124
  N    -7.123436  3.912959 -0.318458
  N    -7.727071  0.252356  3.217263
  N    -7.767964  3.846979  3.487434
  S    -8.591833  0.130322  1.755496
  S    -8.429189  3.271319  2.070777
  S    -5.593384  0.829073 -1.001027
  S    -5.599496  4.463027 -0.747600
  S    -6.139383  0.708256  3.049654
  S    -6.121508  4.244843  3.436246
