16  
    
  C    -0.034195  3.649740  2.430632
  C     0.447048  7.398917  2.816776
  C    -1.209859  3.132029  1.836830
  C    -0.737521  6.882527  2.200499
  N     0.906141  3.872475  1.524945
  N     1.421447  7.625225  1.924520
  N    -1.136163  2.780660  0.587332
  N    -0.701830  6.700661  0.883952
  N    -1.749488  3.498786  4.357849
  N    -1.449802  7.326214  4.594800
  S    -2.507102  2.989924  2.944995
  S    -2.142878  6.666189  3.231807
  S     0.423303  3.200613  0.102421
  S     0.828150  7.178946  0.468428
  S    -0.141886  4.023507  4.156116
  S     0.128598  7.860782  4.478178
