16  
    
  C     2.996901  5.058713  3.220029
  C     2.935411  9.231087  3.759045
  C     1.801867  4.484363  2.609642
  C     1.789799  8.732241  3.128711
  N     4.001761  5.252359  2.353286
  N     4.036189  9.386289  2.967621
  N     1.862712  4.401067  1.297813
  N     2.020446  8.433989  1.833947
  N     1.153599  4.998770  5.078458
  N     1.127832  8.717538  5.575220
  S     0.481885  4.362357  3.740963
  S     0.482532  8.248314  4.088237
  S     3.377152  4.777174  0.834308
  S     3.484250  8.935273  1.431247
  S     2.723278  5.410823  4.937544
  S     2.597005  9.448770  5.482786
