16  
    
  C     1.262308  4.465931  3.135761
  C     1.615996  7.982167  3.089331
  C    -0.069878  4.115083  2.618802
  C     0.347815  7.907074  2.458727
  N     2.262503  4.678378  2.296701
  N     2.638760  7.992056  2.268649
  N    -0.067661  4.045111  1.285117
  N     0.470404  7.666616  1.168820
  N    -0.329268  4.163672  5.165829
  N    -0.217071  8.187297  4.889407
  S    -1.270687  3.842859  3.878182
  S    -0.997461  8.204350  3.424178
  S     1.478864  4.409606  0.796623
  S     2.040786  7.752267  0.700398
  S     1.248567  4.634993  4.880173
  S     1.458182  8.253589  4.789689
