16  
    
  C     2.197569  4.416297  3.101472
  C     1.994712  8.276276  3.127547
  C     1.084266  4.074476  2.297639
  C     0.847936  7.634023  2.569662
  N     3.318814  4.300014  2.411419
  N     3.038733  8.280874  2.293949
  N     1.298001  3.769974  1.021795
  N     0.977837  7.190978  1.321612
  N     0.225526  4.479608  4.722760
  N     0.053876  8.497739  4.904768
  S    -0.377453  3.813778  3.194039
  S    -0.506281  7.530344  3.654837
  S     2.968833  4.013640  0.804990
  S     2.544985  7.455892  0.954552
  S     1.904684  4.723062  4.757709
  S     1.666072  9.037642  4.687103
