16  
    
  C    -1.572372  2.862930  2.022671
  C    -1.133103  6.843165  2.223881
  C    -2.624700  2.130185  1.332648
  C    -2.430293  6.509173  1.679534
  N    -0.539181  3.106263  1.277703
  N    -0.162129  6.853473  1.343468
  N    -2.368272  1.916053  0.060447
  N    -2.402788  6.195081  0.389493
  N    -3.301809  2.387740  3.822084
  N    -2.784798  7.014123  4.153852
  S    -3.866933  1.642435  2.440572
  S    -3.704446  6.374066  2.869273
  S    -0.867974  2.552485 -0.260793
  S    -0.865141  6.604770 -0.108234
  S    -1.888505  3.265872  3.696217
  S    -1.099524  7.131870  3.891079
