16  
    
  C     0.151324  3.404946  2.453836
  C     0.040690  7.206883  2.804277
  C    -1.028329  2.835817  1.706019
  C    -1.172749  6.847380  2.106739
  N     1.148781  3.586393  1.614991
  N     1.060862  7.417843  1.998753
  N    -0.998428  2.988389  0.385429
  N    -1.008934  6.716759  0.778544
  N    -1.656750  2.864462  4.260168
  N    -1.792945  6.938268  4.650285
  S    -2.329953  2.512695  2.764965
  S    -2.473071  6.470443  3.235153
  S     0.602544  3.356104  0.027166
  S     0.616400  7.058729  0.394890
  S    -0.044880  3.485573  4.180032
  S    -0.208665  7.396382  4.495874
