16  
    
  C    -4.142475  1.433138  1.906267
  C    -3.941924  5.218228  1.951273
  C    -5.455741  1.118728  1.271897
  C    -5.230434  4.866767  1.376859
  N    -3.121264  1.390500  1.063842
  N    -2.919982  4.980246  1.099925
  N    -5.382997  1.010433 -0.042830
  N    -5.129474  4.369260  0.153482
  N    -5.917495  1.373024  3.822904
  N    -5.758378  5.340318  3.923917
  S    -6.737673  1.065617  2.435204
  S    -6.555071  4.774517  2.572322
  S    -3.698607  1.174448 -0.471814
  S    -3.536040  4.417015 -0.345901
  S    -4.305017  1.702457  3.694963
  S    -4.115482  5.718867  3.667918
