16  
    
  C    -4.562280  1.141848  1.572313
  C    -4.828490  4.683652  1.670471
  C    -5.840171  0.866371  0.917571
  C    -6.041308  4.406983  0.938650
  N    -3.513274  1.213814  0.743663
  N    -3.805736  4.854264  0.830542
  N    -5.819481  0.876399 -0.388686
  N    -5.999447  4.424239 -0.394474
  N    -6.406036  0.730048  3.347319
  N    -6.609258  4.169739  3.391143
  S    -7.240611  0.608615  1.884381
  S    -7.406902  4.107754  1.943143
  S    -4.141188  0.943137 -0.777316
  S    -4.398310  4.636014 -0.698705
  S    -4.700426  0.917357  3.229685
  S    -4.950177  4.556508  3.430348
