16  
    
  C    -0.412916  3.594575  2.886916
  C    -0.682707  6.864607  2.711715
  C    -1.589316  3.027800  2.197024
  C    -1.817902  6.403333  1.987687
  N     0.615573  3.700578  2.052117
  N     0.353101  7.136811  1.922195
  N    -1.377381  2.685399  0.927692
  N    -1.667787  6.187796  0.700749
  N    -2.114928  3.192669  4.692729
  N    -2.632576  6.594859  4.296397
  S    -2.925815  2.929691  3.298671
  S    -3.230101  6.043236  2.825809
  S     0.146569  3.240098  0.552824
  S    -0.089298  6.633526  0.401107
  S    -0.563764  3.750902  4.593478
  S    -1.024131  7.066004  4.333972
