16  
    
  C     0.129403  3.541795  2.317166
  C     0.145132  7.277112  2.914199
  C    -1.022036  3.006727  1.715092
  C    -0.997379  6.798091  2.240611
  N     1.208391  3.645930  1.512196
  N     1.154115  7.423960  2.091885
  N    -0.956756  2.943909  0.381884
  N    -0.921015  6.639546  0.954629
  N    -1.502784  2.837591  4.208684
  N    -1.740919  7.177793  4.599425
  S    -2.381947  2.798426  2.809248
  S    -2.352566  6.489315  3.189226
  S     0.589818  3.495328 -0.034660
  S     0.654885  7.009988  0.567727
  S     0.091098  3.407199  4.036085
  S    -0.108151  7.679712  4.558956
