16  
    
  C    -5.355389  1.176135  1.303865
  C    -5.478771  4.819503  1.568197
  C    -6.567430  0.678950  0.655728
  C    -6.714939  4.486201  0.908701
  N    -4.380496  1.465628  0.470166
  N    -4.453720  4.949206  0.759600
  N    -6.399196  0.447174 -0.640099
  N    -6.635810  4.320451 -0.402705
  N    -7.172033  0.794223  3.164591
  N    -7.247056  4.657854  3.472486
  S    -7.802941  0.073292  1.773134
  S    -8.020603  4.132343  2.059086
  S    -4.874742  0.992759 -1.031606
  S    -5.033310  4.644544 -0.792480
  S    -5.546012  1.196071  3.000889
  S    -5.607305  4.869062  3.370521
