16  
    
  C     0.849296  3.865677  2.544951
  C     1.545424  7.942106  3.252281
  C    -0.331099  3.549587  1.844997
  C     0.255737  7.816363  2.622759
  N     1.886113  4.151156  1.753283
  N     2.576528  7.857626  2.397893
  N    -0.090355  3.395279  0.520062
  N     0.248016  7.784321  1.288977
  N    -0.886926  3.662729  4.367761
  N    -0.220164  7.847968  5.202938
  S    -1.625474  3.165262  2.882246
  S    -1.088803  7.779762  3.759761
  S     1.499602  3.724174  0.254537
  S     1.894588  7.855292  0.914801
  S     0.715944  4.051979  4.316424
  S     1.415964  8.021426  5.053488
