16  
    
  C    -5.449929  1.182374  1.626388
  C    -5.162204  4.840027  1.381626
  C    -6.696631  0.976701  0.937844
  C    -6.435472  4.430690  0.794938
  N    -4.374706  1.111707  0.844870
  N    -4.090618  4.743865  0.562381
  N    -6.680466  0.751420 -0.399300
  N    -6.334406  4.097788 -0.510806
  N    -7.197672  1.069418  3.474492
  N    -6.928248  5.024208  3.322064
  S    -7.989220  0.789684  2.111516
  S    -7.774936  4.433718  2.017746
  S    -4.990076  0.766476 -0.708382
  S    -4.720957  4.171247 -0.870985
  S    -5.566787  1.253405  3.416168
  S    -5.270453  5.058776  3.108022
