16  
    
  C    -0.282666  3.251724  2.705339
  C    -0.282382  7.143508  2.440513
  C    -1.488186  2.662263  2.044994
  C    -1.475621  6.743013  1.683415
  N     0.712595  3.508445  1.854469
  N     0.888890  7.139048  1.789793
  N    -1.295678  2.330271  0.760660
  N    -1.192917  6.420039  0.423538
  N    -2.190031  3.146118  4.445769
  N    -2.201713  6.841978  4.201381
  S    -2.752218  2.328862  3.114442
  S    -2.873568  6.549022  2.690311
  S     0.251530  2.750514  0.393825
  S     0.402846  6.732304  0.183206
  S    -0.690613  3.782641  4.368293
  S    -0.580500  7.321020  4.153608
