16  
    
  C     3.025497  4.995864  3.232826
  C     2.983196  9.249221  3.775005
  C     1.795185  4.510228  2.618785
  C     1.815536  8.717532  3.112373
  N     3.958967  5.294997  2.343487
  N     4.041622  9.402312  2.949468
  N     1.858948  4.376158  1.305212
  N     2.014967  8.387275  1.870237
  N     1.146755  5.004929  5.077953
  N     1.124361  8.691851  5.512078
  S     0.474382  4.325698  3.761145
  S     0.485569  8.230570  4.049696
  S     3.361839  4.780647  0.835344
  S     3.459978  8.957476  1.393879
  S     2.743888  5.425459  4.911387
  S     2.583611  9.444533  5.489029
