16  
    
  C     2.006314  5.021401  3.195660
  C     2.019724  8.522285  3.329557
  C     0.911416  4.443323  2.383968
  C     0.809653  8.236140  2.629177
  N     3.108319  5.166029  2.449696
  N     3.085271  8.723529  2.590903
  N     1.036185  4.505163  1.040469
  N     0.887579  8.349903  1.318867
  N     0.230648  4.459198  4.837651
  N     0.277227  8.398179  5.164197
  S    -0.523948  4.206867  3.389822
  S    -0.502120  7.916817  3.787614
  S     2.642788  4.957667  0.850788
  S     2.532030  8.688856  0.996216
  S     1.704008  5.111803  4.951083
  S     1.872928  8.837725  4.969497
