16  
    
  C    -3.137093  1.692361  2.043045
  C    -3.203180  5.575426  2.116561
  C    -4.363068  1.423537  1.373494
  C    -4.312905  4.906196  1.478636
  N    -2.176361  2.042136  1.182165
  N    -2.189507  5.849902  1.275425
  N    -4.293138  1.325873  0.045963
  N    -4.164362  4.729606  0.182343
  N    -5.070261  1.583112  3.802058
  N    -4.803684  5.033527  3.990253
  S    -5.753234  1.251445  2.345995
  S    -5.561464  4.577818  2.567049
  S    -2.745031  1.752621 -0.317140
  S    -2.652769  5.382789 -0.232643
  S    -3.455523  1.919487  3.699866
  S    -3.343700  5.883579  3.843751
