16  
    
  C    -0.335231  3.276102  2.608296
  C    -0.269775  7.084341  2.410813
  C    -1.585547  2.786590  2.009139
  C    -1.521583  6.640988  1.670416
  N     0.690039  3.314196  1.797938
  N     0.802451  7.232651  1.658762
  N    -1.409190  2.491161  0.745847
  N    -1.314055  6.573382  0.365025
  N    -2.164045  3.216267  4.516821
  N    -2.083692  6.778865  4.160735
  S    -2.848438  2.467908  3.135212
  S    -2.864700  6.582378  2.708318
  S     0.150590  2.875426  0.305320
  S     0.339644  6.784255  0.107881
  S    -0.546158  3.706705  4.251121
  S    -0.481812  7.238073  4.093186
