16  
    
  C    -1.575671  3.235771  1.936033
  C    -1.052472  7.057756  2.426202
  C    -2.576927  2.364005  1.365894
  C    -2.303117  6.794184  1.840956
  N    -0.533664  3.561817  1.194206
  N    -0.076754  7.040553  1.531513
  N    -2.364390  2.134652  0.096295
  N    -2.272771  6.495510  0.567650
  N    -3.233297  2.677971  3.854999
  N    -2.588052  6.605211  4.267008
  S    -3.885472  2.025263  2.433579
  S    -3.580727  6.678794  2.966508
  S    -0.953374  2.984305 -0.321084
  S    -0.712449  6.749713  0.056449
  S    -1.737751  3.425412  3.700899
  S    -1.006161  7.114414  4.145960
