16  
    
  C    -0.243141  3.276121  2.627827
  C    -0.074698  6.935647  2.455024
  C    -1.352527  2.555976  1.976841
  C    -1.277679  6.594939  1.787452
  N     0.694997  3.653068  1.774018
  N     0.908375  7.263016  1.628421
  N    -1.150510  2.354097  0.667544
  N    -1.179398  6.662789  0.472747
  N    -1.909683  2.859872  4.484505
  N    -1.867952  6.475606  4.277105
  S    -2.647560  2.257903  3.091393
  S    -2.542387  6.022831  2.833569
  S     0.389445  2.957131  0.312872
  S     0.367318  7.133315  0.084476
  S    -0.382412  3.489910  4.335933
  S    -0.298702  6.930689  4.187986
