16  
    
  C    -3.382585  1.779079  1.607951
  C    -3.737930  5.573859  1.696825
  C    -4.627548  1.214132  0.982904
  C    -4.888008  5.072227  1.011674
  N    -2.303365  1.890700  0.814091
  N    -2.742619  5.738094  0.858412
  N    -4.424639  0.893014 -0.282035
  N    -4.790033  4.911431 -0.313523
  N    -5.102440  1.452755  3.569978
  N    -5.536128  5.207412  3.521162
  S    -5.863350  0.829949  2.167112
  S    -6.230977  4.825092  2.049167
  S    -2.842689  1.236766 -0.708686
  S    -3.265165  5.492850 -0.636424
  S    -3.556090  2.124434  3.305745
  S    -3.850176  5.604633  3.474277
