16  
    
  C     2.048629  5.018357  3.198906
  C     2.134507  8.617892  3.300366
  C     0.887340  4.584000  2.412372
  C     0.918646  8.237096  2.603918
  N     3.140649  5.236363  2.486608
  N     3.168211  8.834948  2.491129
  N     1.062641  4.455358  1.108197
  N     0.987821  8.172795  1.248676
  N     0.005355  4.673045  4.870575
  N     0.354695  8.112961  5.158606
  S    -0.543548  4.148076  3.362937
  S    -0.393049  7.809419  3.669438
  S     2.658183  4.912080  0.899390
  S     2.583542  8.583607  0.890642
  S     1.568203  5.268309  4.797857
  S     1.945404  8.650759  5.023006
