16  
    
  C    -2.560137  2.336342  2.328304
  C    -2.726017  5.855567  2.038567
  C    -3.743201  1.820644  1.619136
  C    -3.902773  5.398451  1.298257
  N    -1.649738  2.833730  1.524166
  N    -1.660511  6.051792  1.280146
  N    -3.601775  1.809170  0.295561
  N    -3.744272  5.210521  0.007908
  N    -4.324925  1.992937  4.126774
  N    -4.494474  5.467161  3.899575
  S    -5.037255  1.536826  2.716769
  S    -5.188860  4.894860  2.508994
  S    -2.154575  2.506707 -0.060057
  S    -2.184919  5.742109 -0.293512
  S    -2.756888  2.452244  4.040494
  S    -2.875815  5.723812  3.776786
