16  
    
  C    -3.739446  1.944027  1.961748
  C    -3.506768  5.408315  1.961651
  C    -4.666235  1.057274  1.292975
  C    -4.807828  4.931678  1.422314
  N    -2.736458  2.418599  1.214527
  N    -2.511148  5.410104  1.080917
  N    -4.375224  0.758835  0.017667
  N    -4.678971  4.430140  0.176538
  N    -5.626161  1.406764  3.734610
  N    -5.149530  5.272653  3.933608
  S    -6.000000  0.579604  2.383857
  S    -6.074734  4.911924  2.614296
  S    -2.986333  1.649757 -0.329252
  S    -3.167811  4.823323 -0.322212
  S    -4.251145  2.276542  3.555499
  S    -3.527633  5.793789  3.656230
