16  
    
  C     2.497686  4.994641  3.527655
  C     2.394491  8.682504  3.424545
  C     1.392929  4.254754  2.973561
  C     1.234237  7.981054  2.925829
  N     3.485636  5.258833  2.690005
  N     3.405702  8.875643  2.570674
  N     1.508363  4.060615  1.672299
  N     1.355168  7.722283  1.622394
  N     0.816498  4.527067  5.403371
  N     0.633617  8.543816  5.242486
  S     0.055825  4.235766  4.036195
  S     0.036052  7.638712  4.027918
  S     3.000942  4.664314  1.182178
  S     2.817269  8.315395  1.087145
  S     2.318185  5.181408  5.255950
  S     2.126601  9.129748  5.075385
