16  
    
  C     0.444917  3.803569  2.979313
  C     0.443370  7.515017  2.933788
  C    -0.885508  3.598573  2.345887
  C    -0.831715  7.273497  2.259740
  N     1.439140  3.842542  2.101684
  N     1.472253  7.594101  2.081263
  N    -0.840324  3.676689  1.010131
  N    -0.712944  7.099931  0.931817
  N    -1.088931  3.161305  4.913495
  N    -1.280425  7.527722  4.857131
  S    -2.075308  3.277942  3.556303
  S    -2.118170  7.104419  3.444565
  S     0.730978  3.940204  0.626736
  S     0.927840  7.217866  0.519082
  S     0.493668  3.313745  4.668465
  S     0.320434  7.847465  4.608207
