16  
    
  C    -0.001949  3.222814  2.576199
  C    -0.008507  7.108707  2.595007
  C    -1.100525  2.660170  1.886086
  C    -1.179090  6.599174  1.936779
  N     0.904399  3.737784  1.779373
  N     1.004077  7.472631  1.787326
  N    -0.930702  2.450268  0.575539
  N    -1.153309  6.636380  0.576061
  N    -1.849720  2.923263  4.317102
  N    -1.799953  6.491188  4.510765
  S    -2.490998  2.294282  2.890730
  S    -2.563051  6.357593  3.015877
  S     0.527269  3.169035  0.236539
  S     0.362765  7.202887  0.215416
  S    -0.337465  3.528495  4.329298
  S    -0.233306  6.974012  4.382281
