16  
    
  C    -1.750352  2.404740  1.925765
  C    -1.697313  6.250261  2.142426
  C    -2.988169  2.014674  1.268854
  C    -2.904661  5.862724  1.534000
  N    -0.683765  2.469791  1.134295
  N    -0.628114  6.335009  1.360639
  N    -2.824088  1.814318 -0.016416
  N    -2.776873  5.647656  0.273786
  N    -3.572603  2.123691  3.780645
  N    -3.620057  6.189163  3.843956
  S    -4.342820  1.929683  2.301361
  S    -4.296235  5.584615  2.433907
  S    -1.245254  2.179833 -0.379444
  S    -1.198889  5.940306 -0.205640
  S    -1.899685  2.362774  3.694142
  S    -2.002385  6.697087  3.798555
