16  
    
  C    -5.558623  0.759429  1.545319
  C    -5.477492  4.681389  1.279051
  C    -6.780410  0.459768  0.845206
  C    -6.749846  4.190334  0.685173
  N    -4.473115  0.893046  0.746943
  N    -4.570389  4.951832  0.323679
  N    -6.693140  0.239004 -0.481096
  N    -6.752612  4.073537 -0.676791
  N    -7.450958  0.625192  3.342413
  N    -7.155155  4.289358  3.234875
  S    -8.170318  0.281141  1.869656
  S    -8.023284  4.014089  1.848755
  S    -5.073899  0.590208 -0.826745
  S    -5.268655  4.640362 -1.186294
  S    -5.791959  1.097605  3.224797
  S    -5.653500  5.035121  3.015761
