16  
    
  C     3.068617  5.208487  3.429871
  C     3.361324  9.056872  3.465531
  C     1.940083  4.633631  2.734612
  C     2.092576  8.713177  2.873299
  N     4.102158  5.528579  2.622576
  N     4.293737  9.157694  2.527437
  N     2.164744  4.263635  1.496372
  N     2.077015  8.453899  1.600128
  N     1.210456  4.848163  5.155121
  N     1.722721  8.845829  5.501179
  S     0.617379  4.218241  3.707196
  S     0.843589  8.613431  4.097707
  S     3.572608  4.926829  1.111279
  S     3.625751  8.612382  1.117407
  S     2.744620  5.465802  5.069408
  S     3.355914  9.259794  5.208069
