16  
    
  C    -1.223198  3.360732  2.116225
  C    -1.073768  7.055206  2.602563
  C    -2.434123  2.777438  1.617356
  C    -2.349072  6.858520  1.987783
  N    -0.328727  3.750855  1.206795
  N    -0.055208  7.216925  1.767070
  N    -2.424244  2.535660  0.319093
  N    -2.291914  6.812340  0.679560
  N    -2.713727  2.919897  4.198130
  N    -2.829691  6.620850  4.483418
  S    -3.617477  2.445006  2.847422
  S    -3.676989  6.617754  3.054953
  S    -0.944835  3.134241 -0.247704
  S    -0.731121  6.844062  0.311194
  S    -1.121260  3.401681  3.879094
  S    -1.171002  7.058398  4.347438
