16  
    
  C    -6.157326  0.893281  1.388650
  C    -6.089988  4.439567  1.846244
  C    -7.276573  0.154041  0.850249
  C    -7.263980  3.946978  1.105379
  N    -5.231613  1.329196  0.527162
  N    -5.001377  4.680487  1.100214
  N    -7.325632  0.129356 -0.467848
  N    -7.079605  3.928780 -0.211301
  N    -7.562409  0.261814  3.356393
  N    -8.015216  3.917958  3.573271
  S    -8.341158 -0.377739  2.034848
  S    -8.647969  3.576230  2.085242
  S    -5.905114  0.862095 -0.953033
  S    -5.509838  4.416723 -0.462420
  S    -6.071215  0.938957  3.161730
  S    -6.429530  4.435362  3.515851
