16  
    
  C     0.684218  3.579092  2.721273
  C     0.623162  7.658095  2.726093
  C    -0.667256  3.446036  2.149535
  C    -0.502575  7.022534  2.201778
  N     1.609754  3.893224  1.827136
  N     1.517876  7.989641  1.798265
  N    -0.620852  3.283389  0.815730
  N    -0.485329  6.828394  0.899967
  N    -0.917372  3.301579  4.728172
  N    -1.059040  7.344689  4.644288
  S    -1.954628  3.137999  3.377672
  S    -1.766244  6.627812  3.279724
  S     0.893183  3.713775  0.357525
  S     0.911862  7.394691  0.349932
  S     0.645672  3.508527  4.427466
  S     0.519893  7.909806  4.414445
