16  
    
  C    -3.205459  1.817098  1.993409
  C    -3.152998  5.521779  2.121201
  C    -4.424454  1.365759  1.344250
  C    -4.242438  4.813242  1.465674
  N    -2.165227  2.090668  1.185264
  N    -2.219997  5.844450  1.286760
  N    -4.325730  1.325314  0.028966
  N    -4.170486  4.700846  0.125870
  N    -5.021447  1.582064  3.850114
  N    -4.822632  5.067629  3.937354
  S    -5.758580  1.224416  2.444459
  S    -5.584016  4.530790  2.568246
  S    -2.806203  1.782213 -0.360350
  S    -2.613088  5.331659 -0.186157
  S    -3.443769  1.888836  3.777845
  S    -3.329336  5.890935  3.823160
