16  
    
  C    -3.180037  2.059098  1.710993
  C    -3.087013  5.894678  1.961775
  C    -4.240654  1.421615  0.984741
  C    -4.408273  5.575308  1.460201
  N    -2.102010  2.380766  1.024559
  N    -2.106741  6.027999  1.084843
  N    -3.992216  1.270618 -0.309766
  N    -4.385995  5.368117  0.167012
  N    -5.030666  1.569113  3.421638
  N    -4.650152  5.373440  4.053297
  S    -5.625579  0.994672  1.955234
  S    -5.636805  5.253060  2.721540
  S    -2.512042  1.879689 -0.532648
  S    -2.827395  5.786909 -0.370006
  S    -3.424855  2.233914  3.442371
  S    -3.093901  5.936059  3.690680
