16  
    
  C     2.081999  4.606127  2.941294
  C     2.245300  8.571012  3.116136
  C     0.806815  4.319012  2.326116
  C     1.038582  8.056120  2.464013
  N     3.146945  4.821978  2.145797
  N     3.289439  8.677629  2.330193
  N     0.946554  4.071296  1.002748
  N     1.224088  7.769996  1.190366
  N     0.300120  4.408260  4.910619
  N     0.423045  8.456889  4.941568
  S    -0.431153  3.872659  3.439321
  S    -0.237087  7.787927  3.565224
  S     2.484795  4.474655  0.662670
  S     2.817043  8.114676  0.783387
  S     1.916304  4.864259  4.633225
  S     2.042107  8.899970  4.789259
