16  
    
  C     3.102337  4.866278  3.406170
  C     2.961507  9.018828  3.746201
  C     1.834195  4.704448  2.679291
  C     1.666971  8.682506  3.269543
  N     4.163005  5.135081  2.649596
  N     3.999780  8.936598  2.916310
  N     2.033095  4.608155  1.360543
  N     1.794299  8.206516  2.048188
  N     1.234418  5.005031  5.165997
  N     1.533431  9.217017  5.789028
  S     0.496669  4.660068  3.734973
  S     0.485205  8.764833  4.607825
  S     3.654024  4.871529  1.073779
  S     3.320819  8.431289  1.517365
  S     2.868969  5.273374  5.059241
  S     3.114592  9.301915  5.426146
