16  
    
  C    -1.743123  2.419942  1.967515
  C    -1.659172  6.244856  2.168395
  C    -2.962347  1.972163  1.290486
  C    -2.920773  5.871280  1.470380
  N    -0.656567  2.490937  1.179716
  N    -0.639160  6.260218  1.309855
  N    -2.786278  1.826764 -0.025890
  N    -2.779643  5.576505  0.162628
  N    -3.584090  2.034182  3.742947
  N    -3.601959  6.158171  3.888408
  S    -4.378563  1.952218  2.313944
  S    -4.358067  5.611008  2.464275
  S    -1.218401  2.139239 -0.370001
  S    -1.220867  5.968188 -0.210457
  S    -1.951357  2.363308  3.679050
  S    -1.988251  6.610772  3.839466
