16  
    
  C     0.921582  3.710660  2.988788
  C     1.120655  7.654484  2.974370
  C    -0.362279  3.364700  2.464381
  C    -0.027935  7.074946  2.398079
  N     1.902137  3.856612  2.157350
  N     2.209315  7.704728  2.220001
  N    -0.426428  3.214608  1.153486
  N     0.152875  6.735164  1.145730
  N    -0.708994  3.626407  5.007821
  N    -0.764295  7.654242  4.801132
  S    -1.668159  3.320957  3.642984
  S    -1.430912  7.021068  3.413697
  S     1.145106  3.460093  0.636099
  S     1.719797  7.071428  0.701271
  S     0.834893  4.070358  4.698374
  S     0.896876  7.957206  4.690770
