16  
    
  C     0.296327  3.517771  2.859559
  C     0.396712  7.600102  2.790139
  C    -0.926249  3.306352  2.162038
  C    -0.926647  7.473206  2.234592
  N     1.308968  3.979787  2.122254
  N     1.378861  7.670335  1.874946
  N    -0.730988  3.184527  0.816724
  N    -0.997073  7.548822  0.913938
  N    -1.510016  3.082642  4.693901
  N    -1.273646  7.511627  4.746360
  S    -2.214189  2.807803  3.203450
  S    -2.213922  7.423940  3.395079
  S     0.804321  3.691755  0.573952
  S     0.535513  7.542329  0.389183
  S     0.134002  3.465088  4.644427
  S     0.382949  7.577536  4.552953
