16  
    
  C    -0.744305  3.092419  2.676739
  C    -1.242688  6.489199  2.550718
  C    -1.975345  2.613325  2.034941
  C    -2.372142  5.972696  1.840711
  N     0.307666  3.236789  1.874319
  N    -0.310003  6.983591  1.746986
  N    -1.786867  2.258106  0.782699
  N    -2.248991  5.911911  0.517624
  N    -2.532532  3.054237  4.572775
  N    -3.157716  6.048294  4.338242
  S    -3.307658  2.712931  3.131507
  S    -3.783465  5.564849  2.902865
  S    -0.205506  2.642968  0.387154
  S    -0.746883  6.482672  0.194406
  S    -0.864792  3.314136  4.380406
  S    -1.603245  6.583605  4.328565
