16  
    
  C     0.027812  3.631195  2.585274
  C     0.287517  7.545830  2.648408
  C    -1.110763  2.879202  1.972451
  C    -0.956223  7.152889  1.996140
  N     1.040282  3.836037  1.745313
  N     1.383958  7.708325  1.905747
  N    -0.973873  2.723913  0.673995
  N    -0.767430  7.008916  0.681543
  N    -1.813220  3.386686  4.387495
  N    -1.458508  7.183515  4.509622
  S    -2.380886  2.621065  3.097073
  S    -2.317148  7.009197  3.110157
  S     0.551026  3.165554  0.310319
  S     0.800626  7.287432  0.368270
  S    -0.265433  4.076866  4.274768
  S     0.222102  7.482713  4.380822
