16  
    
  C     2.462981  4.894404  3.497834
  C     2.481380  8.620859  3.428588
  C     1.223544  4.547480  2.762455
  C     1.254947  8.049371  2.911979
  N     3.557473  5.149173  2.775228
  N     3.447354  8.836469  2.511280
  N     1.504199  4.266431  1.495734
  N     1.281537  7.816722  1.626344
  N     0.734217  4.480235  5.327879
  N     0.745003  8.518023  5.404682
  S    -0.053279  4.014627  3.945026
  S     0.051899  7.760424  4.066546
  S     3.126655  4.659211  1.210106
  S     2.778827  8.305695  1.032233
  S     2.276673  5.122296  5.225267
  S     2.369951  9.093179  5.157858
