16  
    
  C    -6.051913  0.929325  1.480073
  C    -6.130046  4.493777  1.804362
  C    -7.138402  0.181795  0.931835
  C    -7.313325  4.049215  1.028437
  N    -5.163734  1.288533  0.600489
  N    -5.068221  4.636319  1.074143
  N    -7.158854  0.095803 -0.383395
  N    -7.074816  4.036470 -0.259615
  N    -7.471247  0.180543  3.463649
  N    -8.065557  4.218108  3.506765
  S    -8.298467 -0.263008  2.147398
  S    -8.727371  3.774135  2.046648
  S    -5.705305  0.797995 -0.909333
  S    -5.452227  4.428610 -0.524640
  S    -6.072431  1.032534  3.203062
  S    -6.439472  4.496713  3.462570
