16  
    
  C    -0.366738  3.431993  2.610563
  C    -0.342517  6.932443  2.423710
  C    -1.680950  3.076009  2.057342
  C    -1.634826  6.432982  1.852115
  N     0.660455  3.381200  1.758542
  N     0.570158  7.206676  1.512429
  N    -1.622238  3.034691  0.713317
  N    -1.667835  6.370752  0.521656
  N    -2.037077  3.220321  4.589462
  N    -2.039432  6.697995  4.301899
  S    -2.916610  2.906896  3.197049
  S    -2.843951  6.213886  2.943354
  S    -0.054866  3.232084  0.240914
  S    -0.140170  6.723997  0.062681
  S    -0.404384  3.627155  4.360900
  S    -0.431705  7.128411  4.122054
