16  
    
  C    -4.746341  0.951722  1.444988
  C    -4.636111  4.613873  1.962406
  C    -5.918203  0.618719  0.721939
  C    -5.863016  4.214762  1.332386
  N    -3.673150  0.950681  0.637577
  N    -3.614172  4.727048  1.103831
  N    -5.836914  0.668575 -0.593775
  N    -5.804060  4.119434  0.014461
  N    -6.562161  0.925727  3.257285
  N    -6.561940  4.621486  3.722908
  S    -7.262736  0.511519  1.756073
  S    -7.268234  4.147899  2.312925
  S    -4.208700  0.988607 -0.924702
  S    -4.253293  4.522348 -0.455328
  S    -4.912346  1.139434  3.169954
  S    -4.965671  4.834241  3.646568
