16  
    
  C     2.622089  4.913733  3.585482
  C     2.331611  8.643130  3.429614
  C     1.403846  4.352359  2.973565
  C     1.254419  7.916079  2.818989
  N     3.513179  5.299447  2.663843
  N     3.298850  9.022632  2.597168
  N     1.559104  3.891563  1.736452
  N     1.405774  7.682817  1.503214
  N     0.887421  4.624988  5.465307
  N     0.530585  8.509601  5.304863
  S     0.018875  4.249345  4.049583
  S    -0.062710  7.579376  4.023236
  S     2.902015  4.680977  1.206376
  S     2.915812  8.301633  1.145448
  S     2.415737  5.254754  5.300547
  S     2.100233  9.152773  5.036363
