16  
    
  C     1.959776  4.795781  2.987945
  C     2.367805  8.575989  3.127130
  C     0.841081  4.085800  2.380106
  C     1.138455  8.085047  2.494800
  N     2.980024  5.063821  2.160528
  N     3.386930  8.604510  2.266301
  N     0.979603  4.107261  1.044912
  N     1.263305  7.869808  1.209917
  N     0.310771  4.332041  4.792205
  N     0.464389  8.344862  4.920960
  S    -0.527034  4.054009  3.461497
  S    -0.186397  7.745678  3.497448
  S     2.548880  4.586132  0.659108
  S     2.743328  8.259754  0.764167
  S     1.815784  5.012068  4.718669
  S     2.037735  8.838089  4.895334
