16  
    
  C    -1.716091  2.517926  2.412846
  C    -1.694154  6.249838  2.406171
  C    -2.910610  2.062956  1.706166
  C    -2.912581  5.733413  1.782105
  N    -0.664566  2.763810  1.635345
  N    -0.590687  6.342714  1.629112
  N    -2.683030  1.885308  0.397489
  N    -2.712457  5.478770  0.466263
  N    -3.564661  2.355119  4.189867
  N    -3.461398  5.755595  4.197906
  S    -4.262730  2.204039  2.709408
  S    -4.224650  5.396036  2.779176
  S    -1.101229  2.324944  0.096442
  S    -1.206149  5.954651  0.148174
  S    -1.937949  2.790189  4.096829
  S    -1.937146  6.309696  4.090530
