16  
    
  C     0.582032  3.482985  2.712232
  C     0.611235  7.621091  2.633389
  C    -0.718611  3.440251  2.080922
  C    -0.508950  7.070205  2.022090
  N     1.602205  3.662067  1.895307
  N     1.616767  8.046401  1.849544
  N    -0.682109  3.274614  0.759462
  N    -0.420093  7.024438  0.689451
  N    -1.116324  3.260543  4.619356
  N    -0.943262  7.049932  4.644486
  S    -1.907098  2.915318  3.189038
  S    -1.732706  6.653668  3.207843
  S     0.909083  3.656409  0.360944
  S     1.033566  7.687985  0.302771
  S     0.497187  3.552555  4.517619
  S     0.579715  7.709759  4.374992
