16  
    
  C    -3.412409  1.767594  1.622405
  C    -3.932280  5.267532  1.606906
  C    -4.596253  1.187665  0.979097
  C    -5.150851  4.868605  1.037005
  N    -2.495160  2.026956  0.731503
  N    -2.942910  5.406987  0.740050
  N    -4.558311  1.018348 -0.343219
  N    -5.126900  4.581645 -0.240929
  N    -5.130017  1.579178  3.492154
  N    -5.566663  5.103590  3.532341
  S    -5.912274  0.957692  2.178185
  S    -6.305797  4.540441  2.218106
  S    -3.042073  1.636353 -0.798396
  S    -3.560288  5.018055 -0.723953
  S    -3.620020  2.166120  3.288377
  S    -3.979844  5.577399  3.327150
