16  
    
  C    -0.406528  3.245660  2.711188
  C    -0.299809  7.043934  2.505677
  C    -1.521184  2.544935  2.044904
  C    -1.536437  6.342968  1.951645
  N     0.682833  3.448157  1.943485
  N     0.706131  7.164539  1.638356
  N    -1.378245  2.521763  0.708910
  N    -1.369783  5.881724  0.720747
  N    -2.166269  2.984265  4.534521
  N    -2.047804  6.926774  4.344015
  S    -2.855807  2.370949  3.155731
  S    -2.690585  6.018871  3.101321
  S     0.229312  2.907071  0.420504
  S     0.088381  6.403742  0.237078
  S    -0.636985  3.658479  4.389770
  S    -0.485139  7.532633  4.125710
