16  
    
  C    -1.576457  2.658568  2.370157
  C    -1.542997  6.363568  2.319962
  C    -2.679313  2.191151  1.605334
  C    -2.747728  5.934745  1.777857
  N    -0.464805  2.743308  1.668587
  N    -0.509046  6.467927  1.500913
  N    -2.495337  1.931738  0.302451
  N    -2.606546  5.650028  0.481481
  N    -3.473274  2.484109  4.054251
  N    -3.298619  6.238531  4.189514
  S    -4.052696  1.864897  2.627087
  S    -4.062271  5.677971  2.796332
  S    -0.833394  2.230835  0.124509
  S    -1.143977  6.160346  0.005355
  S    -1.896025  3.008136  4.049024
  S    -1.667682  6.580958  3.994678
