16  
    
  C    -1.531521  3.105553  1.977621
  C    -0.994096  7.113607  2.392205
  C    -2.603685  2.365710  1.343143
  C    -2.294168  6.723361  1.824173
  N    -0.557069  3.522981  1.182480
  N    -0.048563  7.043997  1.495002
  N    -2.392729  2.104044  0.049476
  N    -2.251245  6.404258  0.545263
  N    -3.244197  2.651282  3.820450
  N    -2.609944  6.611900  4.290162
  S    -3.887783  1.965449  2.432181
  S    -3.595154  6.689402  2.955885
  S    -0.946354  2.934024 -0.322427
  S    -0.756083  6.742845  0.009776
  S    -1.774190  3.429036  3.715476
  S    -1.024517  7.113011  4.135780
