16  
    
  C     2.873312  5.273297  3.239085
  C     2.866317  9.117529  3.457275
  C     1.752976  4.555860  2.728774
  C     1.741540  8.474370  2.818869
  N     3.826774  5.540434  2.362775
  N     3.846033  9.502494  2.587551
  N     1.829518  4.322730  1.441991
  N     1.887309  8.307932  1.507234
  N     1.373377  4.620732  5.175329
  N     1.109699  8.451661  5.273853
  S     0.499932  4.182236  3.858275
  S     0.548082  7.843525  3.810720
  S     3.251591  4.924713  0.906955
  S     3.376254  8.943359  1.067944
  S     2.786907  5.523190  4.985914
  S     2.681111  9.135270  5.204788
