16  
    
  C    -3.149492  1.928703  1.749823
  C    -3.125905  5.893040  2.016911
  C    -4.285590  1.387009  1.000654
  C    -4.395570  5.533067  1.476389
  N    -2.116697  2.381596  1.013929
  N    -2.128031  6.013343  1.144983
  N    -3.977396  1.209700 -0.278342
  N    -4.379568  5.379584  0.135856
  N    -5.040270  1.561810  3.430940
  N    -4.681203  5.367176  3.997330
  S    -5.666559  1.041823  1.974921
  S    -5.625694  5.236637  2.696494
  S    -2.475163  1.872557 -0.540105
  S    -2.868743  5.789564 -0.336289
  S    -3.464225  2.226525  3.429110
  S    -3.095456  5.914631  3.695915
