16  
    
  C    -3.787161  1.903018  1.965016
  C    -3.464334  5.362386  2.003003
  C    -4.707419  1.035620  1.348333
  C    -4.718046  4.837372  1.526911
  N    -2.726455  2.211227  1.218439
  N    -2.467357  5.416356  1.122651
  N    -4.367697  0.773924  0.096693
  N    -4.681262  4.531648  0.226856
  N    -5.611016  1.489274  3.649030
  N    -5.070338  5.295252  3.990784
  S    -6.051947  0.612308  2.270572
  S    -6.012501  4.928643  2.668080
  S    -2.962336  1.582201 -0.239869
  S    -3.111117  4.797043 -0.262911
  S    -4.115661  2.212091  3.672939
  S    -3.547186  5.731993  3.609937
