16  
    
  C    -0.317374  3.172894  2.573569
  C    -0.192266  6.995014  2.344008
  C    -1.502065  2.652733  2.081949
  C    -1.297345  6.324117  1.775021
  N     0.693836  3.296260  1.732257
  N     0.737413  7.387101  1.477823
  N    -1.445536  2.436175  0.769356
  N    -1.143449  6.026629  0.483692
  N    -1.877342  2.914372  4.602477
  N    -1.981001  6.644397  4.247408
  S    -2.777074  2.444246  3.291918
  S    -2.602240  5.926840  2.878606
  S     0.047013  2.997468  0.259816
  S     0.310813  6.707640  0.021715
  S    -0.315019  3.303839  4.291992
  S    -0.446802  7.257213  4.122559
