16  
    
  C    -1.523868  2.831760  2.102242
  C    -1.273570  6.700177  2.201733
  C    -2.553408  1.951280  1.494625
  C    -2.569311  6.350755  1.648573
  N    -0.466071  3.093575  1.353621
  N    -0.347950  6.758778  1.282488
  N    -2.249301  1.624769  0.262232
  N    -2.487031  6.071403  0.353664
  N    -3.398653  2.460478  3.865008
  N    -2.883803  6.511788  4.186941
  S    -3.928781  1.652432  2.490986
  S    -3.820115  6.214640  2.796144
  S    -0.814733  2.397402 -0.140482
  S    -0.938741  6.307898 -0.180048
  S    -1.823391  3.018289  3.843710
  S    -1.310594  7.045632  3.944091
