16  
    
  C    -1.949954  2.250122  2.064615
  C    -2.019732  5.881772  2.157850
  C    -3.204048  1.923580  1.345024
  C    -3.281106  5.657926  1.522174
  N    -0.943161  2.360586  1.205203
  N    -0.969004  5.990451  1.314897
  N    -3.123965  1.814515  0.014492
  N    -3.224742  5.607207  0.160752
  N    -3.782618  2.390756  3.803418
  N    -3.726914  5.703978  4.099150
  S    -4.533838  1.784469  2.462505
  S    -4.582688  5.535772  2.724212
  S    -1.528344  2.134421 -0.355966
  S    -1.623064  5.667289 -0.210894
  S    -2.140159  2.466728  3.767240
  S    -2.119377  6.068449  3.887537
