16  
    
  C    -4.274434  1.585986  2.025513
  C    -4.635535  5.206332  1.681056
  C    -5.382227  0.923202  1.357072
  C    -5.835474  4.736838  1.093204
  N    -3.204230  1.751359  1.231758
  N    -3.623677  5.410354  0.842574
  N    -5.149195  0.670941  0.061398
  N    -5.774472  4.470370 -0.220169
  N    -6.214126  1.558468  3.723076
  N    -6.295442  5.138017  3.701131
  S    -6.867733  0.955738  2.356348
  S    -7.139325  4.607763  2.304006
  S    -3.673781  1.179732 -0.288000
  S    -4.142319  4.829410 -0.628942
  S    -4.596065  1.959345  3.669026
  S    -4.617963  5.479311  3.405049
