16  
    
  C     2.072235  4.899207  3.221317
  C     2.072283  8.594614  3.267983
  C     0.879420  4.615260  2.461632
  C     0.855123  8.269298  2.571718
  N     3.122499  5.253055  2.455135
  N     3.152098  8.744688  2.486799
  N     1.075781  4.488330  1.153446
  N     0.987077  8.195470  1.246252
  N     0.007794  4.589673  4.883337
  N     0.364397  8.176195  5.178047
  S    -0.547333  4.159701  3.327798
  S    -0.446079  7.822162  3.717682
  S     2.656116  4.918388  0.879961
  S     2.578952  8.638957  0.941238
  S     1.616326  5.265579  4.828964
  S     1.927779  8.706601  5.013803
