16  
    
  C     2.033032  4.396026  3.043277
  C     1.972796  7.902922  3.143384
  C     0.774871  3.899564  2.458370
  C     0.812289  7.556318  2.425461
  N     3.061780  4.299673  2.182775
  N     3.089562  8.017481  2.446787
  N     0.799748  3.866004  1.108409
  N     1.073308  7.512155  1.104628
  N     0.297675  4.258466  4.989735
  N     0.134674  7.755628  4.919857
  S    -0.556378  3.962642  3.566209
  S    -0.575696  7.345284  3.462558
  S     2.345934  3.915563  0.738309
  S     2.651013  7.821744  0.853777
  S     1.841605  4.763262  4.740837
  S     1.764398  8.210511  4.798982
