16  
    
  C     2.255228  4.808099  3.260553
  C     2.394896  8.769733  3.491710
  C     1.059663  4.295730  2.614569
  C     1.137157  8.386318  2.876867
  N     3.318761  4.920710  2.447827
  N     3.419109  8.942108  2.606076
  N     1.078006  4.388718  1.272443
  N     1.145619  8.352348  1.543817
  N     0.637305  4.248560  5.079512
  N     0.515011  8.661077  5.325907
  S    -0.132343  3.853918  3.741053
  S    -0.206330  8.203448  3.925641
  S     2.663648  4.829026  0.949892
  S     2.703210  8.604528  1.126983
  S     2.193492  4.720947  4.994959
  S     2.103744  9.067237  5.244782
