16  
    
  C     0.697095  3.977632  2.960333
  C     0.681861  7.576835  2.685614
  C    -0.509795  3.395618  2.341669
  C    -0.514607  6.906223  2.225175
  N     1.755914  4.030760  2.137561
  N     1.608255  7.816945  1.748058
  N    -0.423783  3.315601  1.032791
  N    -0.466166  6.450588  0.971158
  N    -1.033501  3.768937  4.819103
  N    -0.988987  7.399512  4.758637
  S    -1.808552  3.168736  3.434699
  S    -1.755464  6.666387  3.453839
  S     1.206781  3.422334  0.636314
  S     0.959015  7.098131  0.358253
  S     0.479594  4.316754  4.616861
  S     0.565505  7.948946  4.506187
