16  
    
  C    -0.415043  3.392078  2.654490
  C    -0.229743  6.966085  2.521455
  C    -1.372241  2.523250  2.070420
  C    -1.376636  6.528022  1.813644
  N     0.708911  3.598987  1.963006
  N     0.829728  7.223256  1.770046
  N    -1.085687  2.105229  0.854530
  N    -1.189681  6.281432  0.524411
  N    -2.193816  3.079303  4.446123
  N    -2.231522  6.924058  4.228784
  S    -2.831247  2.293853  3.129369
  S    -2.863036  6.482789  2.739774
  S     0.369592  2.809170  0.496941
  S     0.369285  6.633064  0.237919
  S    -0.724548  3.729344  4.311839
  S    -0.633430  7.437449  4.222322
