16  
    
  C    -4.384615  0.956427  1.815225
  C    -4.720298  4.574335  1.640177
  C    -5.659714  0.684298  1.183577
  C    -5.896411  4.318612  0.859677
  N    -3.439181  1.424255  1.007427
  N    -3.727033  5.030213  0.883097
  N    -5.562035  0.762866 -0.108169
  N    -5.779683  4.480286 -0.436260
  N    -6.153030  0.636491  3.576375
  N    -6.600527  4.219385  3.271056
  S    -7.024727  0.431373  2.211441
  S    -7.254483  3.841249  1.729928
  S    -4.112767  1.307362 -0.521154
  S    -4.209022  5.020218 -0.707739
  S    -4.565285  1.101110  3.493784
  S    -4.939430  4.466561  3.352723
