16  
    
  C    -4.455289  1.630186  1.960705
  C    -4.653252  5.022241  1.698383
  C    -5.608203  0.976349  1.346956
  C    -5.835354  4.432674  1.036079
  N    -3.459606  1.747242  1.094382
  N    -3.595829  5.297439  0.948628
  N    -5.539069  0.829018  0.008855
  N    -5.653609  4.324096 -0.268010
  N    -5.960008  1.057461  3.914367
  N    -6.409827  4.718251  3.528895
  S    -6.802280  0.618971  2.514642
  S    -7.074028  3.974342  2.127575
  S    -4.027272  1.274994 -0.359763
  S    -4.132235  4.917274 -0.568062
  S    -4.383265  1.753608  3.686262
  S    -4.803010  5.171050  3.354905
