16  
    
  C     0.694128  3.946605  2.874430
  C     0.612852  7.611117  2.706870
  C    -0.545063  3.398371  2.278090
  C    -0.605256  6.843137  2.249816
  N     1.729378  3.896098  2.067719
  N     1.575335  7.862488  1.798427
  N    -0.482061  3.249600  0.951920
  N    -0.550666  6.549062  0.949914
  N    -0.976914  3.626900  4.839969
  N    -0.889480  7.303089  4.734122
  S    -1.832706  3.216738  3.395600
  S    -1.756769  6.652579  3.495161
  S     1.072146  3.662483  0.486451
  S     0.903886  7.108129  0.451085
  S     0.601084  4.045928  4.606351
  S     0.506749  8.078371  4.357529
