16  
    
  C     2.853805  5.082132  3.777571
  C     2.199645  8.608078  3.392896
  C     1.628988  4.577822  3.269494
  C     1.190089  7.941180  2.683124
  N     3.750616  5.254071  2.833994
  N     3.348256  8.840381  2.741669
  N     1.636940  4.256598  1.998530
  N     1.549507  7.671133  1.402778
  N     1.140367  4.912391  5.759308
  N     0.321846  8.388117  5.163051
  S     0.367049  4.457291  4.385682
  S    -0.139408  7.523459  3.775932
  S     3.153400  4.602524  1.448331
  S     3.060977  8.406143  1.216183
  S     2.621764  5.678383  5.421186
  S     1.898145  8.987275  5.002711
