16  
    
  C    -5.350412  0.935349  1.774189
  C    -5.129385  4.659195  1.397894
  C    -6.585182  0.623862  1.075861
  C    -6.356166  4.314354  0.731944
  N    -4.351279  1.096701  0.934901
  N    -4.114814  4.828438  0.571239
  N    -6.448400  0.464960 -0.218783
  N    -6.215880  4.097187 -0.559474
  N    -7.183736  1.028501  3.645746
  N    -7.031939  4.994734  3.137903
  S    -7.887894  0.616364  2.181320
  S    -7.792893  4.468825  1.756236
  S    -4.859840  0.836503 -0.589809
  S    -4.615834  4.462006 -0.982134
  S    -5.516552  1.343179  3.454218
  S    -5.390043  5.246087  2.986780
