16  
    
  C    -6.045538  0.796907  1.361821
  C    -6.093709  4.356630  1.739838
  C    -7.220172  0.142285  0.732695
  C    -7.185297  3.828834  1.020330
  N    -5.123932  1.213256  0.493508
  N    -5.060108  4.701450  1.032343
  N    -7.227288  0.172036 -0.598115
  N    -7.117367  3.892097 -0.288860
  N    -7.655509  0.262483  3.313396
  N    -7.758149  3.627006  3.536526
  S    -8.531305 -0.150412  1.941244
  S    -8.536353  3.462989  2.087962
  S    -5.819176  0.970060 -1.049225
  S    -5.547848  4.464053 -0.536946
  S    -6.143442  0.847562  3.126100
  S    -6.301056  4.460213  3.498230
