16  
    
  C     3.076874  5.170077  3.419242
  C     3.360800  9.063130  3.472160
  C     1.944043  4.630429  2.749103
  C     2.092682  8.715943  2.906482
  N     4.099129  5.540534  2.616913
  N     4.309993  9.130809  2.519218
  N     2.175975  4.263670  1.480175
  N     2.098289  8.450730  1.618186
  N     1.195237  4.878860  5.144188
  N     1.688222  8.831818  5.515243
  S     0.620517  4.205565  3.703383
  S     0.837977  8.613517  4.084179
  S     3.572872  4.930811  1.115517
  S     3.605283  8.625431  1.114099
  S     2.751445  5.459727  5.082230
  S     3.332872  9.265815  5.229590
