16  
    
  C    -5.313153  1.173214  1.470315
  C    -5.265152  4.533118  1.527644
  C    -6.650341  0.970667  0.877556
  C    -6.564196  4.133225  1.018034
  N    -4.245771  1.183565  0.676051
  N    -4.284461  4.653995  0.626732
  N    -6.605749  0.635760 -0.415782
  N    -6.606137  3.930076 -0.321819
  N    -7.095121  1.108598  3.359990
  N    -6.880284  4.787117  3.556266
  S    -7.990732  0.867823  1.985056
  S    -7.761333  4.122808  2.321670
  S    -4.964701  0.799165 -0.848508
  S    -5.061058  4.278546 -0.807923
  S    -5.468251  1.340027  3.218524
  S    -5.215819  4.844958  3.259521
