16  
    
  C    -6.003018  0.887205  1.312609
  C    -6.052347  4.336956  1.554512
  C    -7.250787  0.594965  0.642519
  C    -7.185555  3.882112  0.892570
  N    -4.921394  1.031639  0.521887
  N    -5.063728  4.784318  0.759209
  N    -7.070848  0.555456 -0.680248
  N    -7.154720  3.891118 -0.466102
  N    -7.799780  0.271436  3.148423
  N    -7.663109  3.895110  3.480295
  S    -8.604908  0.250028  1.763735
  S    -8.385688  3.318359  2.072661
  S    -5.473702  0.799945 -1.017317
  S    -5.641307  4.486424 -0.778426
  S    -6.193248  0.645464  3.097691
  S    -6.051505  4.190877  3.367774
