16  
    
  C     2.913839  5.039491  3.634974
  C     2.912212  8.680680  3.443011
  C     1.590317  4.854408  3.029144
  C     1.692897  8.345131  2.775724
  N     3.930018  4.819410  2.801236
  N     4.017377  8.741316  2.696254
  N     1.639440  4.842285  1.693517
  N     1.855148  8.125101  1.449311
  N     1.234645  5.450937  5.498769
  N     1.087905  8.720552  5.289133
  S     0.315553  5.200792  4.129004
  S     0.274060  8.463545  3.832433
  S     3.283652  4.902908  1.331383
  S     3.530837  8.264364  1.194140
  S     2.898704  5.280807  5.316741
  S     2.751572  9.054310  5.155500
