16  
    
  C    -0.881423  3.107166  2.454775
  C    -0.635811  6.563181  2.436682
  C    -2.136997  2.704711  1.826801
  C    -1.865688  6.220096  1.736053
  N     0.136830  3.133826  1.610264
  N     0.363303  6.790602  1.595111
  N    -2.062228  2.673035  0.505755
  N    -1.750636  5.934220  0.465579
  N    -2.624440  2.978463  4.394247
  N    -2.539335  6.323783  4.157601
  S    -3.418316  2.670319  2.965397
  S    -3.261031  6.019940  2.722980
  S    -0.472921  2.814292  0.106804
  S    -0.111934  6.174020  0.113469
  S    -1.007402  3.386014  4.180500
  S    -0.924270  6.643757  4.163649
