16  
    
  C    -3.711641  1.987634  1.837046
  C    -3.631655  5.552191  1.839474
  C    -4.693506  1.035518  1.283837
  C    -4.850925  5.117615  1.217779
  N    -2.707894  2.341974  1.005861
  N    -2.625644  5.589744  0.976248
  N    -4.411214  0.750951  0.015071
  N    -4.802236  4.966440 -0.109238
  N    -5.451303  1.384780  3.757651
  N    -5.280008  5.473502  3.763173
  S    -5.941917  0.568910  2.419810
  S    -6.171661  4.949871  2.365914
  S    -2.979599  1.511490 -0.426618
  S    -3.196503  5.404642 -0.509789
  S    -4.074603  2.287791  3.534029
  S    -3.642840  5.759139  3.575424
