16  
    
  C     0.848199  3.836541  2.946837
  C     1.164788  7.655568  3.053079
  C    -0.399457  3.277428  2.405187
  C    -0.077833  7.146512  2.379848
  N     1.828074  3.816827  2.024448
  N     2.217833  7.689913  2.208375
  N    -0.409520  3.198602  1.067441
  N     0.058138  6.692952  1.106936
  N    -0.696741  3.803047  4.962371
  N    -0.672109  7.577141  4.855622
  S    -1.583126  3.360717  3.632857
  S    -1.411364  7.036728  3.458336
  S     1.207093  3.384305  0.594005
  S     1.616245  7.074876  0.789832
  S     0.899150  4.219219  4.651435
  S     0.906547  7.976037  4.737900
