16  
    
  C    -1.778869  2.411072  1.955771
  C    -1.829073  6.462128  2.181997
  C    -3.020844  2.039148  1.361711
  C    -2.832097  5.656296  1.645867
  N    -0.773347  2.373934  1.082033
  N    -0.971533  6.843941  1.258602
  N    -3.038103  1.997559  0.009521
  N    -2.700516  5.187344  0.401784
  N    -3.372240  2.158874  3.908447
  N    -3.490995  6.029470  4.038772
  S    -4.253593  1.859466  2.548497
  S    -4.192212  5.490664  2.641992
  S    -1.435529  2.221444 -0.402300
  S    -1.237633  5.873299 -0.069749
  S    -1.798980  2.585117  3.688178
  S    -2.173578  7.003547  3.744861
