16  
    
  C    -1.552572  2.621858  2.408707
  C    -1.510620  6.442382  2.333320
  C    -2.709139  2.217689  1.590279
  C    -2.727032  5.912293  1.719349
  N    -0.453512  2.731449  1.653344
  N    -0.496669  6.518994  1.453518
  N    -2.441560  1.888847  0.313844
  N    -2.598081  5.659968  0.434998
  N    -3.457306  2.471116  4.032287
  N    -3.240219  6.245572  4.210995
  S    -4.045090  1.828933  2.627020
  S    -4.063359  5.746382  2.797705
  S    -0.809309  2.255783  0.094182
  S    -1.121216  6.162945 -0.031547
  S    -1.888144  3.030373  4.030759
  S    -1.636087  6.609783  4.022178
