16  
    
  C     2.620891  5.009552  3.603403
  C     2.279931  8.832872  3.406076
  C     1.376429  4.521786  3.072116
  C     1.292112  7.995348  2.840901
  N     3.582154  5.214857  2.714296
  N     3.292134  9.147155  2.563134
  N     1.509190  4.167822  1.796576
  N     1.587823  7.533097  1.608581
  N     0.972964  4.949965  5.653133
  N     0.476654  8.170212  5.256881
  S     0.218067  4.173671  4.383870
  S    -0.095390  7.585141  3.728668
  S     3.047984  4.584315  1.311608
  S     2.951223  8.273082  1.203187
  S     2.543958  5.456696  5.286030
  S     1.855812  9.074970  5.116429
