16  
    
  C     0.565946  3.876666  2.975211
  C     0.717808  7.481124  2.816936
  C    -0.643764  3.375017  2.421001
  C    -0.436161  7.117014  2.099691
  N     1.547737  4.019086  2.100749
  N     1.833272  7.629541  2.081009
  N    -0.585682  2.937316  1.195030
  N    -0.301729  6.895011  0.777887
  N    -1.124612  3.928091  4.874787
  N    -1.272631  7.151613  4.627172
  S    -1.982987  3.307510  3.561514
  S    -1.884410  6.856630  3.081194
  S     0.974767  3.319035  0.660599
  S     1.329878  7.208264  0.516177
  S     0.467530  4.220131  4.648607
  S     0.274375  7.776420  4.553269
