16  
    
  C    -4.285153  1.464646  2.027063
  C    -4.628255  5.218161  1.700340
  C    -5.468523  0.972358  1.365271
  C    -5.896253  4.703396  1.106555
  N    -3.282377  1.757962  1.217906
  N    -3.630656  5.404640  0.840915
  N    -5.267427  0.615620  0.082563
  N    -5.746856  4.402091 -0.169739
  N    -6.129080  1.486396  3.717810
  N    -6.233999  4.969489  3.605332
  S    -6.868288  0.884454  2.320135
  S    -7.183675  4.546399  2.256845
  S    -3.717122  1.248670 -0.261735
  S    -4.222927  4.827962 -0.579647
  S    -4.534848  1.977790  3.737189
  S    -4.653071  5.451546  3.392513
