16  
    
  C     3.146262  5.182329  3.437083
  C     3.274010  9.053641  3.664037
  C     2.046733  4.565847  2.744638
  C     2.052019  8.758017  2.952673
  N     4.190214  5.368257  2.638593
  N     4.397194  9.136083  2.914692
  N     2.144075  4.435015  1.426118
  N     2.306735  8.587351  1.606788
  N     1.346479  4.761894  5.169268
  N     1.418792  8.929301  5.386034
  S     0.641481  4.258904  3.717568
  S     0.643262  8.548660  4.035312
  S     3.695748  4.862513  1.071470
  S     3.891296  8.963150  1.353984
  S     2.901818  5.376030  5.155822
  S     3.005246  9.261153  5.362862
