16  
    
  C    -0.356402  3.349497  2.632396
  C    -0.322367  7.054355  2.428211
  C    -1.431417  2.626644  2.080792
  C    -1.455278  6.746361  1.679849
  N     0.731232  3.385732  1.828851
  N     0.762441  7.195888  1.692738
  N    -1.398377  2.495781  0.744885
  N    -1.244640  6.525662  0.391969
  N    -2.183967  3.169299  4.450800
  N    -2.106145  6.808227  4.131169
  S    -2.799293  2.401055  3.143639
  S    -2.891865  6.561073  2.676764
  S     0.196247  2.793523  0.356512
  S     0.385761  6.762681  0.205393
  S    -0.628396  3.739723  4.289402
  S    -0.494204  7.285564  4.107046
