16  
    
  C     2.951006  5.210532  3.567338
  C     2.994434  8.769398  3.444775
  C     1.734048  4.884540  2.849944
  C     1.860142  8.210417  2.778337
  N     3.972185  5.518755  2.785405
  N     4.002171  9.181816  2.587395
  N     1.873652  4.799478  1.543370
  N     1.987583  8.002777  1.457525
  N     1.104605  4.938607  5.340595
  N     1.034505  8.421265  5.177530
  S     0.372891  4.569230  3.864095
  S     0.433578  7.973861  3.635617
  S     3.472125  5.280448  1.247173
  S     3.474312  8.689733  1.077250
  S     2.678570  5.345344  5.260401
  S     2.622780  8.861789  5.211695
