16  
    
  C    -3.407747  1.739748  1.603124
  C    -3.694186  5.566003  1.741827
  C    -4.608115  1.253037  1.051589
  C    -4.882702  5.149029  1.043438
  N    -2.349236  1.898090  0.818662
  N    -2.688695  5.812157  0.901242
  N    -4.415048  0.881135 -0.223622
  N    -4.743942  4.960746 -0.262186
  N    -5.106517  1.462728  3.525934
  N    -5.500677  5.179721  3.505982
  S    -5.849840  0.808037  2.166882
  S    -6.247759  4.847572  2.050524
  S    -2.848705  1.245247 -0.621600
  S    -3.203371  5.542488 -0.659441
  S    -3.565614  2.106586  3.290857
  S    -3.851540  5.621830  3.474749
