16  
    
  C    -3.109237  2.183232  1.734985
  C    -2.953280  5.912003  1.995719
  C    -4.176048  1.477963  1.049751
  C    -4.246293  5.490114  1.523036
  N    -2.053142  2.491249  0.960097
  N    -2.024836  6.075519  1.053729
  N    -4.023459  1.533528 -0.273346
  N    -4.232037  5.255376  0.196918
  N    -4.888959  1.612669  3.485063
  N    -4.567694  5.575612  3.989856
  S    -5.516149  1.067781  2.030994
  S    -5.517152  5.287833  2.625818
  S    -2.456765  2.136095 -0.580093
  S    -2.800223  5.768236 -0.392090
  S    -3.336001  2.300451  3.473701
  S    -2.995970  6.052044  3.678849
