16  
    
  C     0.678014  3.901959  2.989454
  C     0.640468  7.478744  2.740742
  C    -0.547482  3.471708  2.367609
  C    -0.486772  6.859757  2.225408
  N     1.683882  3.999194  2.110689
  N     1.598688  7.745394  1.898685
  N    -0.368778  2.871816  1.165739
  N    -0.419066  6.627529  0.952773
  N    -1.161659  3.931370  4.802926
  N    -1.028299  7.343421  4.716664
  S    -1.824678  3.209919  3.475422
  S    -1.789528  6.725937  3.336992
  S     1.161179  3.376964  0.684799
  S     1.139483  7.176360  0.440249
  S     0.441348  4.402078  4.657723
  S     0.552104  7.834816  4.418664
