16  
    
  C     3.173215  5.181959  3.433141
  C     3.576709  9.227038  3.348897
  C     2.006154  4.676188  2.819322
  C     2.383800  8.607065  2.755961
  N     4.183622  5.558527  2.683718
  N     4.579371  9.360570  2.550674
  N     2.139027  4.552951  1.496209
  N     2.572259  8.395604  1.448179
  N     1.422131  5.135676  5.299908
  N     2.076004  8.812906  5.423137
  S     0.723186  4.418396  3.992644
  S     1.188862  8.320952  4.111480
  S     3.624216  5.147438  1.148768
  S     4.089967  8.902372  1.025706
  S     3.060251  5.381620  5.134642
  S     3.556004  9.461891  5.075796
