16  
    
  C     0.125990  3.566955  2.687669
  C     0.323117  7.519396  2.679352
  C    -1.119060  3.043674  2.020467
  C    -0.927555  7.258872  2.049189
  N     1.143017  3.817790  1.853904
  N     1.315548  7.586740  1.807015
  N    -0.879644  2.723254  0.758444
  N    -0.872714  7.118397  0.730425
  N    -1.779363  3.304956  4.476677
  N    -1.490077  7.198955  4.533903
  S    -2.347116  2.507689  3.099370
  S    -2.257814  7.134857  3.069710
  S     0.641225  3.274229  0.351291
  S     0.769461  7.416037  0.226684
  S    -0.254543  3.985562  4.316800
  S     0.128487  7.459486  4.443864
