16  
    
  C     3.142990  5.180296  3.401189
  C     3.316295  9.190211  3.762809
  C     1.937869  4.688520  2.726759
  C     2.167705  8.856191  2.979399
  N     4.276312  5.177595  2.691861
  N     4.396353  9.419329  3.012760
  N     2.173727  4.472947  1.429402
  N     2.440293  8.692650  1.636230
  N     1.353871  4.941728  5.219785
  N     1.447173  8.749485  5.344383
  S     0.624846  4.482272  3.824024
  S     0.748387  8.726588  3.908849
  S     3.747049  4.821687  1.130192
  S     4.017371  8.942477  1.495007
  S     3.004924  5.262232  5.095098
  S     2.976141  9.282031  5.481196
