16  
    
  C     0.031209  3.657363  2.731184
  C     0.332220  7.341264  2.677578
  C    -1.019890  2.858093  2.033229
  C    -0.965859  7.252246  2.022502
  N     1.103515  3.810628  1.975640
  N     1.350931  7.588890  1.844515
  N    -0.800847  2.793503  0.697181
  N    -0.902805  7.338780  0.688292
  N    -1.626588  3.151595  4.547604
  N    -1.434805  7.309679  4.549879
  S    -2.320969  2.583389  3.094211
  S    -2.333349  7.212762  3.102981
  S     0.752528  3.408648  0.415784
  S     0.684746  7.504191  0.340491
  S    -0.174566  3.853079  4.424302
  S     0.211501  7.520708  4.392126
