16  
    
  C     0.055301  3.584452  2.664540
  C     0.332062  7.464038  2.667771
  C    -1.051075  3.032244  1.983695
  C    -0.923629  7.195942  1.999216
  N     1.149381  3.781187  1.922840
  N     1.373747  7.593556  1.841609
  N    -0.816682  2.700503  0.706084
  N    -0.882796  7.248709  0.678846
  N    -1.753951  3.214907  4.476549
  N    -1.501132  7.238800  4.507289
  S    -2.334256  2.526508  3.121865
  S    -2.277802  7.175575  3.089886
  S     0.670888  3.347430  0.392319
  S     0.700631  7.447206  0.268573
  S    -0.207387  3.943638  4.379767
  S     0.158753  7.482261  4.439826
