16  
    
  C    -4.141059  1.414146  1.929674
  C    -3.917786  5.217042  1.961863
  C    -5.429388  1.157471  1.279961
  C    -5.238304  4.867871  1.383744
  N    -3.126634  1.409933  1.089281
  N    -2.914520  4.999463  1.079166
  N    -5.398117  0.986912 -0.032598
  N    -5.103101  4.362281  0.157386
  N    -5.896929  1.367408  3.806214
  N    -5.739824  5.345115  3.896961
  S    -6.737463  1.049097  2.452089
  S    -6.532734  4.759636  2.575290
  S    -3.714311  1.163439 -0.470840
  S    -3.515127  4.414662 -0.333330
  S    -4.284449  1.721075  3.678151
  S    -4.122473  5.722355  3.659350
