16  
    
  C    -1.172247  3.052785  2.264074
  C    -0.942478  6.790757  2.475299
  C    -2.425269  2.707916  1.682325
  C    -2.267676  6.542379  1.872669
  N    -0.221614  3.081493  1.346242
  N    -0.004056  7.109367  1.589833
  N    -2.547378  2.801806  0.358113
  N    -2.285717  6.574890  0.557539
  N    -2.823594  3.076644  4.240743
  N    -2.683069  6.815966  4.341766
  S    -3.729273  2.718637  2.879150
  S    -3.602745  6.552507  3.021479
  S    -0.960859  2.936319 -0.158787
  S    -0.774069  6.917618  0.116366
  S    -1.193800  3.321045  3.999352
  S    -1.020439  7.058631  4.210230
