16  
    
  C    -5.331881  1.145286  1.405329
  C    -5.373440  4.633655  1.589476
  C    -6.560360  0.627310  0.812882
  C    -6.630698  4.196577  1.119259
  N    -4.315045  1.177253  0.539927
  N    -4.477178  4.747035  0.626492
  N    -6.393090  0.483712 -0.490153
  N    -6.715524  4.041886 -0.181666
  N    -7.080441  0.944562  3.252338
  N    -6.967560  4.386770  3.672367
  S    -7.897096  0.552581  1.911492
  S    -7.886704  4.224969  2.279921
  S    -4.878196  0.862736 -0.945435
  S    -5.204877  4.401632 -0.837902
  S    -5.474196  1.379975  3.127051
  S    -5.397143  4.802642  3.351729
