16  
    
  C     1.946228  4.203648  3.378065
  C     1.662170  7.781570  3.050802
  C     0.676240  4.218293  2.666532
  C     0.430339  7.613378  2.390202
  N     2.964815  4.366211  2.519360
  N     2.687298  7.955654  2.238478
  N     0.740287  4.133252  1.297328
  N     0.506750  7.667969  1.059583
  N     0.187991  3.949604  5.218736
  N     0.057227  7.383674  4.925473
  S    -0.626604  3.723527  3.816941
  S    -0.794776  7.133081  3.539488
  S     2.309636  4.413844  1.014232
  S     2.089631  7.864952  0.683303
  S     1.800103  4.279024  5.128989
  S     1.675766  7.670729  4.755252
