16  
    
  C     2.348833  4.760957  3.322998
  C     2.379685  8.643859  3.523696
  C     1.095485  4.486965  2.661470
  C     1.155414  8.357265  2.873473
  N     3.319060  5.044539  2.461507
  N     3.376164  8.832849  2.661996
  N     1.251461  4.286174  1.356615
  N     1.207814  8.389123  1.544098
  N     0.601954  4.244696  5.193196
  N     0.583288  8.750402  5.382437
  S    -0.152543  3.833906  3.731553
  S    -0.156938  8.130725  4.000059
  S     2.746844  4.760848  0.895266
  S     2.802501  8.635134  1.127644
  S     2.179138  4.708116  5.048914
  S     2.248465  9.048636  5.190332
