16  
    
  C    -3.316400  1.728059  2.016700
  C    -3.082798  5.499488  2.057085
  C    -4.632436  1.377639  1.462524
  C    -4.264860  4.912994  1.440475
  N    -2.352655  1.933896  1.102975
  N    -1.979009  5.642108  1.300893
  N    -4.643499  1.271510  0.123787
  N    -4.085017  4.719884  0.116380
  N    -4.925188  1.382098  4.063983
  N    -4.903526  5.174601  3.890124
  S    -5.835207  1.076339  2.719015
  S    -5.623343  4.649314  2.477664
  S    -3.142226  1.693705 -0.434016
  S    -2.526116  5.143633 -0.191288
  S    -3.324373  1.872884  3.838252
  S    -3.383342  5.751441  3.696019
