16  
    
  C    -5.435285  1.161589  1.615515
  C    -5.206964  4.784646  1.416973
  C    -6.724749  0.881105  1.002119
  C    -6.457422  4.436063  0.861534
  N    -4.398385  1.057705  0.778236
  N    -4.166534  4.701344  0.596192
  N    -6.608135  0.716728 -0.326845
  N    -6.376558  4.063832 -0.425513
  N    -7.181533  1.089390  3.501771
  N    -6.849494  4.789771  3.405965
  S    -8.053079  0.857805  2.040805
  S    -7.744004  4.408229  2.049405
  S    -5.004156  0.848544 -0.726816
  S    -4.751913  4.140565 -0.851289
  S    -5.517037  1.276976  3.348300
  S    -5.241877  5.078972  3.108119
