16  
    
  C    -5.389426  1.175719  1.686175
  C    -5.157128  4.744515  1.426671
  C    -6.631922  0.910954  1.072404
  C    -6.405598  4.402023  0.791867
  N    -4.341818  1.080974  0.864071
  N    -4.132105  4.733241  0.582808
  N    -6.590263  0.752850 -0.268975
  N    -6.332725  4.060780 -0.496407
  N    -7.224816  1.003116  3.574573
  N    -6.976562  5.168952  3.122571
  S    -8.017013  0.697403  2.118442
  S    -7.748031  4.477517  1.811215
  S    -4.952815  0.742634 -0.645037
  S    -4.743631  4.312590 -0.912607
  S    -5.558960  1.277323  3.364783
  S    -5.284004  5.131405  3.124462
