16  
    
  C    -1.766916  2.407570  1.951345
  C    -1.851642  6.459244  2.171853
  C    -3.061464  2.055745  1.388778
  C    -2.893771  5.564298  1.648506
  N    -0.764630  2.493363  1.099529
  N    -0.985998  6.828275  1.244889
  N    -3.031039  1.987236  0.082192
  N    -2.676328  5.170087  0.406315
  N    -3.394211  2.103914  3.950788
  N    -3.546403  6.092611  4.095743
  S    -4.287514  1.874405  2.575099
  S    -4.182823  5.449335  2.697526
  S    -1.423809  2.171069 -0.383884
  S    -1.270878  5.873348 -0.111422
  S    -1.807708  2.602839  3.716185
  S    -2.162935  7.000476  3.827361
