16  
    
  C     0.190861  3.271894  2.367073
  C     0.086944  7.282068  2.800482
  C    -1.019042  2.976284  1.708108
  C    -1.122681  6.873261  2.105050
  N     1.191191  3.709189  1.575656
  N     1.199654  7.371202  2.049918
  N    -0.964986  2.973004  0.369386
  N    -0.992035  6.671529  0.812665
  N    -1.546121  2.843930  4.237106
  N    -1.769689  7.047797  4.638847
  S    -2.337501  2.609913  2.755614
  S    -2.442544  6.458532  3.220814
  S     0.577997  3.379248  0.009072
  S     0.593963  7.045904  0.460288
  S    -0.019225  3.462138  4.151645
  S    -0.192424  7.498002  4.559322
