16  
    
  C    -0.346350  3.277919  2.729337
  C    -0.263678  7.025107  2.593316
  C    -1.444485  2.558581  2.061254
  C    -1.445766  6.424470  1.840547
  N     0.629092  3.682401  1.912805
  N     0.804417  7.190217  1.811562
  N    -1.073588  2.121199  0.850780
  N    -1.238813  6.181908  0.544554
  N    -2.229729  3.054447  4.446938
  N    -2.193482  6.946283  4.233027
  S    -2.826900  2.305022  3.123156
  S    -2.873813  6.429301  2.766703
  S     0.405196  2.812131  0.520509
  S     0.349523  6.627303  0.276695
  S    -0.724004  3.724603  4.309963
  S    -0.575533  7.465189  4.183685
