16  
    
  C    -1.828235  2.380025  2.260480
  C    -1.897791  6.277514  2.277266
  C    -3.079507  1.957233  1.623353
  C    -3.015906  5.539993  1.691959
  N    -0.811659  2.692947  1.418294
  N    -0.904375  6.522813  1.403528
  N    -2.871263  1.716446  0.320167
  N    -3.004715  5.429684  0.345495
  N    -3.563699  2.187376  4.132115
  N    -3.502673  6.039895  4.187191
  S    -4.364365  1.781359  2.713714
  S    -4.211739  5.289987  2.889411
  S    -1.349854  2.177937 -0.066572
  S    -1.451422  5.896273  0.001422
  S    -1.942616  2.589541  3.986620
  S    -2.004210  6.730928  3.960638
