16  
    
  C    -1.578515  3.251732  1.942430
  C    -1.055871  7.048911  2.429204
  C    -2.572806  2.367743  1.371094
  C    -2.308318  6.801207  1.843315
  N    -0.533324  3.566359  1.192985
  N    -0.073859  7.042951  1.535086
  N    -2.358433  2.139713  0.097650
  N    -2.277581  6.508268  0.563967
  N    -3.231346  2.681179  3.858663
  N    -2.588151  6.604748  4.269889
  S    -3.885033  2.032232  2.434991
  S    -3.578272  6.677199  2.968775
  S    -0.954241  2.989250 -0.321486
  S    -0.707282  6.749766  0.062767
  S    -1.734032  3.424423  3.697166
  S    -1.005220  7.114622  4.146759
