16  
    
  C    -3.673041  1.922700  1.849224
  C    -3.619900  5.522534  1.783400
  C    -4.635200  1.024703  1.232189
  C    -4.859012  5.241730  1.146277
  N    -2.719387  2.264407  1.019536
  N    -2.583366  5.798418  1.005436
  N    -4.386708  0.667063 -0.019448
  N    -4.769428  5.181630 -0.187412
  N    -5.382911  1.477303  3.676695
  N    -5.357672  5.362281  3.701329
  S    -5.963796  0.587493  2.363868
  S    -6.111153  4.967164  2.326942
  S    -2.983947  1.471804 -0.445941
  S    -3.209620  5.496355 -0.580968
  S    -3.912065  2.259244  3.559353
  S    -3.745765  5.734572  3.549078
