16  
    
  C     2.942664  5.226965  3.651502
  C     2.885560  8.679523  3.455580
  C     1.708850  5.131332  2.929280
  C     1.712234  8.327607  2.678232
  N     4.018947  5.319839  2.870845
  N     4.033483  8.847301  2.844115
  N     1.842705  4.787447  1.651520
  N     2.057220  8.271448  1.376054
  N     1.110157  4.785770  5.360962
  N     1.041457  8.737571  5.153475
  S     0.359383  4.917604  3.903148
  S     0.357903  8.135221  3.828579
  S     3.411482  5.065896  1.329226
  S     3.682043  8.477641  1.279533
  S     2.742346  5.280801  5.362295
  S     2.682887  8.878117  5.175164
