16  
    
  C    -5.439548  1.205233  1.630278
  C    -5.158508  4.844694  1.374786
  C    -6.690294  0.941263  0.926853
  C    -6.446408  4.417559  0.791941
  N    -4.386491  1.093122  0.846003
  N    -4.083918  4.739307  0.571281
  N    -6.698289  0.744839 -0.387517
  N    -6.344286  4.097079 -0.502905
  N    -7.194443  1.077179  3.464541
  N    -6.923509  4.968931  3.346525
  S    -8.006294  0.806254  2.098583
  S    -7.771764  4.429278  2.040586
  S    -4.989335  0.784928 -0.718118
  S    -4.728593  4.158684 -0.860417
  S    -5.550418  1.255924  3.409005
  S    -5.263669  5.058941  3.105085
