16  
    
  C    -0.766934  3.143955  2.621280
  C    -1.270391  6.558696  2.555723
  C    -1.918306  2.562450  2.025903
  C    -2.423430  5.966700  1.897062
  N     0.299473  3.085035  1.844154
  N    -0.271242  6.940592  1.725051
  N    -1.803891  2.255795  0.721361
  N    -2.249347  5.807287  0.578995
  N    -2.514387  3.010294  4.434451
  N    -3.085328  5.988527  4.306792
  S    -3.312745  2.629770  3.085243
  S    -3.791433  5.563168  2.838576
  S    -0.252856  2.678185  0.328506
  S    -0.775913  6.448138  0.229617
  S    -0.922752  3.278328  4.382570
  S    -1.491765  6.575474  4.274652
