16  
    
  C    -4.156570  1.611527  1.896550
  C    -3.963793  5.151071  1.953655
  C    -5.362937  1.090298  1.375627
  C    -5.123278  4.594015  1.397794
  N    -3.150670  1.541386  1.022002
  N    -2.912976  5.197845  1.163969
  N    -5.436310  0.842583  0.054775
  N    -4.993643  4.215602  0.135814
  N    -5.825179  1.498962  3.841600
  N    -5.682847  5.370353  3.791033
  S    -6.673888  0.966001  2.526352
  S    -6.460283  4.690878  2.461077
  S    -3.791483  1.073972 -0.396616
  S    -3.413195  4.556405 -0.233005
  S    -4.203288  1.818702  3.577958
  S    -4.008837  5.756183  3.549484
