16  
    
  C    -4.586998  0.958281  1.642487
  C    -4.846131  4.576840  1.581609
  C    -5.819836  0.837716  0.901757
  C    -6.058567  4.370938  0.902487
  N    -3.551776  1.165085  0.836043
  N    -3.772103  4.843283  0.842312
  N    -5.676894  0.804431 -0.427949
  N    -5.914957  4.360089 -0.408757
  N    -6.295544  0.711002  3.485417
  N    -6.611727  4.276826  3.439321
  S    -7.115210  0.558200  2.059664
  S    -7.385591  4.008107  1.943506
  S    -4.101263  1.128125 -0.727124
  S    -4.323605  4.861552 -0.726630
  S    -4.703103  0.970096  3.372264
  S    -4.991307  4.483190  3.269269
