16  
    
  C    -1.722402  2.247320  1.900596
  C    -1.863498  6.573811  2.056033
  C    -3.030710  2.095737  1.344153
  C    -2.906432  5.771442  1.521081
  N    -0.695523  2.378761  1.065029
  N    -0.745695  6.647513  1.344422
  N    -2.978148  2.002623  0.013215
  N    -2.594177  5.275250  0.290312
  N    -3.449547  2.325111  3.854693
  N    -3.489880  6.022568  4.002935
  S    -4.286385  1.801026  2.506133
  S    -4.310233  5.505288  2.633801
  S    -1.386386  2.260061 -0.443553
  S    -1.125851  5.919112 -0.141555
  S    -1.784566  2.504090  3.630469
  S    -2.136115  6.999017  3.732317
