16  
    
  C    -0.354232  3.261328  2.649166
  C    -0.313220  6.966114  2.431384
  C    -1.594467  2.723499  2.053706
  C    -1.464924  6.165963  1.939195
  N     0.703355  3.353189  1.864878
  N     0.650794  7.154669  1.548502
  N    -1.401482  2.421225  0.774439
  N    -1.287628  5.924541  0.644778
  N    -2.057744  2.879822  4.629065
  N    -1.990830  6.862382  4.439850
  S    -2.861205  2.461835  3.182648
  S    -2.687990  5.982066  3.207935
  S     0.115884  2.960843  0.338165
  S     0.170938  6.481531  0.116277
  S    -0.527618  3.505760  4.353193
  S    -0.521627  7.504038  4.079578
