16  
    
  C     0.166427  3.384318  2.287735
  C     0.209483  7.384008  2.859332
  C    -1.084972  3.220182  1.673201
  C    -0.904600  6.686959  2.233089
  N     1.086118  3.809195  1.445217
  N     1.253085  7.541535  2.056840
  N    -1.036892  3.128281  0.333964
  N    -0.709482  6.456545  0.914924
  N    -1.492627  3.047167  4.204203
  N    -1.682428  7.234959  4.721641
  S    -2.351963  2.930716  2.836439
  S    -2.340528  6.577929  3.379428
  S     0.564931  3.474939 -0.072364
  S     0.837083  7.025186  0.577534
  S     0.123988  3.416332  4.063002
  S    -0.126924  7.789566  4.530803
