16  
    
  C    -3.702867  1.968797  1.852379
  C    -3.620457  5.535387  1.828339
  C    -4.688976  1.085301  1.281240
  C    -4.845297  5.100081  1.256480
  N    -2.747310  2.333959  1.005622
  N    -2.612416  5.576877  1.003230
  N    -4.408822  0.754066  0.031227
  N    -4.792551  4.930439 -0.068793
  N    -5.456818  1.372370  3.776396
  N    -5.268930  5.484254  3.786140
  S    -5.929245  0.564790  2.410660
  S    -6.175185  4.947533  2.372975
  S    -2.990470  1.526929 -0.400657
  S    -3.205647  5.367390 -0.504396
  S    -4.102852  2.297360  3.514126
  S    -3.636252  5.760443  3.563609
