16  
    
  C     2.971672  5.384157  3.744931
  C     2.725634  8.618126  3.152093
  C     1.648970  5.033548  3.239520
  C     1.398931  8.291462  2.645653
  N     3.959473  5.151735  2.865909
  N     3.764162  8.493390  2.294931
  N     1.612775  4.816392  1.921044
  N     1.477057  7.975241  1.325625
  N     1.324293  5.464190  5.755676
  N     1.044518  8.989892  5.104894
  S     0.378231  5.443859  4.363167
  S     0.163875  8.352697  3.897155
  S     3.193746  4.612300  1.531520
  S     3.030174  8.244236  0.858778
  S     2.996779  5.634442  5.458627
  S     2.691682  9.108740  4.830993
