16  
    
  C     2.063762  4.445787  3.326870
  C     1.503194  7.986605  3.029630
  C     0.756090  4.078117  2.713089
  C     0.398750  7.368541  2.358262
  N     3.005265  4.760722  2.440224
  N     2.531359  8.287651  2.248707
  N     0.856208  3.843251  1.393325
  N     0.607575  7.225621  1.059552
  N     0.267547  4.442258  5.149314
  N    -0.301987  7.627794  4.809832
  S    -0.535689  3.872537  3.817187
  S    -0.939376  6.983377  3.440955
  S     2.440572  4.203108  0.902080
  S     2.084780  7.944808  0.686383
  S     1.785610  4.925794  4.988074
  S     1.228415  8.224880  4.727918
