16  
    
  C     2.541223  5.051346  3.582208
  C     2.195830  8.786289  3.398175
  C     1.461677  4.227928  3.102815
  C     1.224424  7.913520  2.806483
  N     3.492086  5.238863  2.683023
  N     3.229862  9.056209  2.632760
  N     1.493898  4.026731  1.798386
  N     1.527123  7.541493  1.570578
  N     0.895069  4.787658  5.541059
  N     0.553062  8.354485  5.232860
  S     0.111844  4.239498  4.189423
  S    -0.100666  7.578353  3.921817
  S     2.945070  4.652218  1.232108
  S     2.988795  8.312603  1.152170
  S     2.503708  5.327758  5.274993
  S     1.985444  9.133607  5.075084
