16  
    
  C     3.191138  5.191383  3.429342
  C     3.696296  9.088244  3.381135
  C     2.053447  4.566333  2.837959
  C     2.416324  8.592269  2.849488
  N     4.099573  5.509258  2.552678
  N     4.631715  9.240213  2.502638
  N     2.048720  4.541358  1.495708
  N     2.466438  8.311426  1.544462
  N     1.307776  5.150582  5.264688
  N     2.081512  8.851695  5.356765
  S     0.673158  4.360188  3.943067
  S     1.136852  8.428989  4.078221
  S     3.608625  5.091938  1.041705
  S     3.986490  8.897810  1.016593
  S     2.933518  5.431332  5.221707
  S     3.587838  9.472431  5.004132
