16  
    
  C     2.615518  4.954598  3.590023
  C     2.270208  8.840160  3.381362
  C     1.358399  4.484399  3.057723
  C     1.266048  7.991614  2.812006
  N     3.577778  5.265747  2.703527
  N     3.305989  9.139982  2.579197
  N     1.496667  4.134588  1.770248
  N     1.593763  7.509531  1.626780
  N     0.988949  4.940110  5.618582
  N     0.480859  8.183536  5.262988
  S     0.209831  4.185055  4.370226
  S    -0.081863  7.592521  3.754157
  S     3.026080  4.589831  1.303489
  S     2.937009  8.279496  1.204689
  S     2.510770  5.421968  5.284039
  S     1.872480  9.085348  5.109030
