16  
    
  C     0.570416  3.531522  2.700826
  C     0.623311  7.625843  2.696208
  C    -0.695830  3.357981  2.081903
  C    -0.557142  7.072309  2.038926
  N     1.568489  3.679335  1.858685
  N     1.530474  8.007176  1.823787
  N    -0.675688  3.355714  0.735533
  N    -0.393268  6.970396  0.709744
  N    -1.056721  3.254121  4.654137
  N    -0.964180  7.118809  4.645983
  S    -1.885332  2.960014  3.203703
  S    -1.741825  6.657743  3.247845
  S     0.881169  3.649480  0.369216
  S     1.047024  7.672892  0.278881
  S     0.520027  3.530873  4.516942
  S     0.561135  7.728306  4.382302
