16  
    
  C     3.203201  4.973199  3.553524
  C     3.473849  8.937705  3.735791
  C     1.940642  4.733088  2.921588
  C     2.133997  8.867984  3.204748
  N     4.183161  5.060276  2.639316
  N     4.411949  8.673903  2.773611
  N     1.931639  4.442926  1.633690
  N     1.956427  8.416296  1.965470
  N     1.418845  5.038087  5.376298
  N     1.771848  9.233795  5.636549
  S     0.560413  4.697574  3.966675
  S     0.836902  9.087035  4.297653
  S     3.524320  4.681984  1.168076
  S     3.563262  8.232869  1.376364
  S     3.062729  5.391485  5.263269
  S     3.437961  9.187999  5.432863
