16  
    
  C    -3.626012  2.008261  1.777947
  C    -3.905591  5.261052  1.692393
  C    -4.825905  1.405866  1.150140
  C    -5.096168  4.683532  1.106979
  N    -2.644985  2.272587  0.906952
  N    -2.953755  5.619308  0.810295
  N    -4.767376  1.371516 -0.189064
  N    -4.961972  4.561468 -0.210279
  N    -5.152054  1.204663  3.689340
  N    -5.787882  5.143034  3.479600
  S    -6.063604  1.184746  2.362944
  S    -6.467471  4.337782  2.178137
  S    -3.240509  1.952496 -0.642088
  S    -3.436538  5.073293 -0.640251
  S    -3.794702  2.078854  3.535148
  S    -4.186918  5.453422  3.414225
