16  
    
  C    -2.259107  2.507854  1.949363
  C    -2.158857  5.841974  2.217445
  C    -3.469845  2.094296  1.362814
  C    -3.378889  5.408793  1.592251
  N    -1.277507  2.575107  1.046814
  N    -1.158323  6.073285  1.342161
  N    -3.476814  1.735141  0.068110
  N    -3.327570  5.350274  0.258811
  N    -3.901552  2.381338  3.948605
  N    -4.072146  5.932916  4.036271
  S    -4.757822  1.993436  2.548624
  S    -4.811770  5.427682  2.616563
  S    -1.919547  2.061201 -0.418501
  S    -1.731756  5.700210 -0.163143
  S    -2.275647  2.697182  3.694685
  S    -2.422537  6.152892  3.952454
