16  
    
  C     2.263887  4.647808  3.236445
  C     2.331087  8.910329  3.502561
  C     1.028958  4.274138  2.552951
  C     1.101433  8.468362  2.879190
  N     3.270511  4.938336  2.444208
  N     3.326664  8.995395  2.647418
  N     1.003708  4.449714  1.239450
  N     1.117654  8.242054  1.580476
  N     0.599872  4.242244  5.155658
  N     0.480453  8.569771  5.316341
  S    -0.188619  3.861043  3.706385
  S    -0.278506  8.261513  3.859671
  S     2.611654  4.870992  0.930880
  S     2.668212  8.599440  1.078410
  S     2.241165  4.757939  4.946793
  S     2.037539  9.070324  5.249311
