16  
    
  C     3.182781  5.184815  3.486360
  C     3.327777  8.932404  3.695197
  C     1.915117  4.794623  2.879701
  C     2.078864  8.766764  3.055579
  N     4.244703  4.979618  2.676676
  N     4.384966  8.737457  2.849275
  N     2.007531  4.548576  1.579736
  N     2.167380  8.545630  1.706754
  N     1.367066  5.110280  5.391935
  N     1.791811  9.052530  5.685948
  S     0.584700  4.718413  4.014668
  S     0.844642  9.144098  4.323807
  S     3.594965  4.651304  1.143220
  S     3.752432  8.342707  1.420574
  S     3.007128  5.310805  5.237879
  S     3.425839  9.247396  5.401983
