16  
    
  C     1.917304  5.177387  3.090003
  C     2.171824  8.587924  3.181863
  C     0.896837  4.351366  2.440131
  C     1.030820  8.032040  2.462392
  N     2.979181  5.424365  2.290372
  N     3.213429  8.860545  2.435282
  N     1.090880  4.176442  1.146745
  N     1.299684  7.851138  1.183173
  N     0.083722  4.699149  4.784316
  N     0.490934  8.135776  5.038706
  S    -0.582103  4.129723  3.362582
  S    -0.281149  7.731649  3.620272
  S     2.575978  4.744807  0.830516
  S     2.778965  8.527582  0.841406
  S     1.626062  5.190728  4.762427
  S     2.122081  8.562272  4.868794
