16  
    
  C     2.624724  4.915217  3.584835
  C     2.325337  8.643959  3.427022
  C     1.403737  4.351171  2.976925
  C     1.249540  7.910370  2.819261
  N     3.512388  5.296710  2.659962
  N     3.293917  9.028079  2.592878
  N     1.563432  3.890276  1.741200
  N     1.413201  7.679330  1.495066
  N     0.887585  4.631897  5.474763
  N     0.530011  8.507486  5.308931
  S     0.018486  4.249119  4.050726
  S    -0.068666  7.576099  4.020148
  S     2.898589  4.681481  1.208974
  S     2.922130  8.302109  1.149748
  S     2.423325  5.259670  5.301684
  S     2.096790  9.153816  5.037573
