16  
    
  C    -1.800353  2.416915  1.935404
  C    -1.836843  6.446298  2.192392
  C    -3.034429  2.032502  1.380881
  C    -2.855549  5.615941  1.631517
  N    -0.762773  2.421172  1.080752
  N    -1.002029  6.845870  1.253866
  N    -3.041140  2.001016  0.046342
  N    -2.699458  5.184564  0.427041
  N    -3.375578  2.130716  3.926849
  N    -3.516191  6.054860  4.067709
  S    -4.264739  1.868628  2.557233
  S    -4.176521  5.476291  2.659403
  S    -1.429170  2.199317 -0.392784
  S    -1.249381  5.868662 -0.091299
  S    -1.802556  2.595106  3.705776
  S    -2.170565  7.004070  3.778452
