16  
    
  C     1.201495  4.480014  3.092835
  C     1.704995  8.338176  2.968602
  C    -0.018695  3.957361  2.432448
  C     0.422953  8.168540  2.330445
  N     2.232080  4.590748  2.282678
  N     2.727481  8.281272  2.119837
  N     0.078920  3.932609  1.111062
  N     0.485174  7.997857  1.009130
  N    -0.607518  4.144524  4.853173
  N    -0.080553  8.349695  4.900446
  S    -1.403032  3.645809  3.409826
  S    -0.910491  8.043509  3.481508
  S     1.630468  4.426511  0.696079
  S     2.156426  7.954213  0.627266
  S     0.982234  4.440187  4.789598
  S     1.554632  8.650973  4.695163
