16  
    
  C     3.542367  5.257305  3.598470
  C     3.488485  9.055033  3.525810
  C     2.257475  4.996396  2.921331
  C     2.362052  8.390296  2.855840
  N     4.545661  5.526953  2.799204
  N     4.464935  9.468582  2.808606
  N     2.406234  4.898384  1.591528
  N     2.473742  8.393423  1.540204
  N     1.817503  4.993156  5.465699
  N     1.737196  8.653765  5.359477
  S     0.939166  4.775500  4.017826
  S     0.997759  8.097111  3.993788
  S     3.978148  5.354484  1.263065
  S     4.058823  9.095258  1.222495
  S     3.448302  5.424563  5.286848
  S     3.278674  9.314036  5.169677
