16  
    
  C     3.280399  5.420048  3.530505
  C     3.652906  9.302380  3.498688
  C     2.126444  4.812478  2.870392
  C     2.515558  8.708425  2.897362
  N     4.322004  5.540495  2.669392
  N     4.598823  9.523433  2.523110
  N     2.184636  4.753242  1.538320
  N     2.565590  8.455002  1.591951
  N     1.614415  4.958603  5.421097
  N     1.974637  8.743070  5.289100
  S     0.809058  4.507496  4.023291
  S     1.244043  8.150991  3.928480
  S     3.745530  5.148968  1.124300
  S     3.974753  8.911947  1.102002
  S     3.218892  5.352836  5.279745
  S     3.450757  9.434575  5.206056
