16  
    
  C     0.428554  3.540817  2.980280
  C     0.444648  7.529981  2.854769
  C    -0.858924  3.420057  2.322977
  C    -0.863739  7.240879  2.315837
  N     1.442797  3.659539  2.118195
  N     1.369801  7.715684  1.921009
  N    -0.850977  3.627666  1.021265
  N    -0.935134  7.258482  0.977491
  N    -1.279664  3.047111  4.825832
  N    -1.168986  7.611777  4.896943
  S    -2.107714  3.031149  3.379707
  S    -2.144532  7.370920  3.609700
  S     0.772902  3.940963  0.614253
  S     0.644845  7.499300  0.469298
  S     0.348473  3.384771  4.716930
  S     0.465669  7.684325  4.629461
