16  
    
  C     3.102422  5.096659  3.388025
  C     3.201322  8.877996  3.648934
  C     1.994000  4.568446  2.718533
  C     2.005165  8.548895  2.932173
  N     4.158308  5.376742  2.621688
  N     4.258463  9.104644  2.879772
  N     2.208538  4.298142  1.418063
  N     2.124850  8.614184  1.554460
  N     1.210622  4.965185  5.152522
  N     1.473850  8.955745  5.501358
  S     0.651443  4.173751  3.805766
  S     0.689889  8.556392  4.061730
  S     3.693683  4.990269  1.134587
  S     3.819595  8.891253  1.339290
  S     2.833522  5.350841  5.049709
  S     3.137446  9.283240  5.250327
