16  
    
  C     2.137201  4.544927  2.961132
  C     2.155956  8.581419  3.055407
  C     0.882695  4.166827  2.299473
  C     0.993380  7.887866  2.475155
  N     3.144213  4.616259  2.118400
  N     3.201540  8.747031  2.254445
  N     0.916851  4.067050  0.984408
  N     1.203320  7.480852  1.197808
  N     0.373579  4.430813  4.778601
  N     0.427079  8.484674  4.931673
  S    -0.374614  3.788002  3.431455
  S    -0.384665  7.851411  3.646536
  S     2.561981  4.304782  0.545449
  S     2.817127  8.004846  0.849041
  S     1.968267  4.719063  4.763521
  S     1.996221  8.977593  4.720390
