16  
    
  C    -3.486247  1.791037  1.658637
  C    -3.631824  5.642884  1.746161
  C    -4.567873  1.055730  1.092984
  C    -4.783263  5.177817  1.039700
  N    -2.371542  1.946505  0.937314
  N    -2.593110  5.963133  0.942858
  N    -4.421557  0.778880 -0.202334
  N    -4.678974  5.212662 -0.285862
  N    -5.185745  1.511568  3.567589
  N    -5.467369  5.084614  3.576072
  S    -5.832076  0.793002  2.205147
  S    -6.198999  4.924351  2.126259
  S    -2.881396  1.302276 -0.581727
  S    -3.118530  5.607819 -0.603226
  S    -3.641545  2.103686  3.417526
  S    -3.896866  5.651601  3.435356
