16  
    
  C    -6.035833  0.875940  1.475050
  C    -6.146090  4.467631  1.759291
  C    -7.152105  0.159457  0.948958
  C    -7.271190  4.056684  1.027477
  N    -5.154113  1.271072  0.592664
  N    -5.046646  4.630778  1.068054
  N    -7.103240  0.097503 -0.361734
  N    -7.068903  4.036796 -0.270360
  N    -7.467863  0.202691  3.478964
  N    -8.043160  4.190128  3.518608
  S    -8.304388 -0.239411  2.111305
  S    -8.730669  3.812493  2.045736
  S    -5.683560  0.805189 -0.881715
  S    -5.457704  4.443585 -0.531889
  S    -6.051696  1.058067  3.224979
  S    -6.446456  4.525360  3.421909
