16  
    
  C     2.057199  4.500641  3.236311
  C     1.536168  7.972766  3.056096
  C     0.826776  4.008204  2.669300
  C     0.390359  7.390426  2.392060
  N     3.084389  4.727863  2.410165
  N     2.581480  8.217307  2.269936
  N     0.911841  3.940951  1.370204
  N     0.604842  7.343355  1.082876
  N     0.265797  4.374079  5.176794
  N    -0.313050  7.626249  4.792907
  S    -0.546676  3.796324  3.848215
  S    -0.937311  7.004076  3.410335
  S     2.437641  4.237724  0.916910
  S     2.090308  7.896597  0.679214
  S     1.815991  4.944675  4.976162
  S     1.242379  8.186974  4.727794
