16  
    
  C    -1.071212  3.100552  2.430170
  C    -0.622145  6.483913  2.348912
  C    -2.321963  2.712434  1.793972
  C    -1.873840  6.228359  1.704406
  N     0.055758  3.088116  1.679664
  N     0.379116  6.638237  1.528338
  N    -2.175616  2.649789  0.456806
  N    -1.800225  6.148831  0.382844
  N    -2.845943  3.217584  4.266579
  N    -2.327664  6.578504  4.149382
  S    -3.653358  2.919815  2.870348
  S    -3.192369  6.193894  2.770462
  S    -0.514730  2.684158  0.156612
  S    -0.206875  6.530369  0.027979
  S    -1.215311  3.370487  4.167614
  S    -0.710879  6.841301  4.006177
