16  
    
  C    -4.158701  1.567480  1.866833
  C    -3.988498  5.170433  1.856259
  C    -5.352763  0.921801  1.410381
  C    -5.139969  4.619331  1.335539
  N    -3.188451  1.746287  1.015236
  N    -3.042686  5.360536  0.951820
  N    -5.285103  0.546763  0.180735
  N    -5.085724  4.181861  0.097611
  N    -5.893505  1.771770  3.695948
  N    -5.785811  5.287225  3.694116
  S    -6.667616  0.942830  2.504917
  S    -6.490781  4.589655  2.326941
  S    -3.834733  1.057891 -0.416613
  S    -3.586055  4.609880 -0.410231
  S    -4.302136  2.010980  3.523377
  S    -4.171843  5.668072  3.538533
