16  
    
  C    -4.822975  1.128824  1.664313
  C    -4.752470  4.803376  1.845988
  C    -5.886884  0.372848  1.057175
  C    -5.832958  4.124290  1.217416
  N    -3.792803  1.374859  0.824324
  N    -3.764431  5.061534  0.995149
  N    -5.754497  0.296123 -0.280845
  N    -5.684507  3.831087 -0.078711
  N    -6.777001  0.903292  3.486072
  N    -6.561520  4.490321  3.623501
  S    -7.337310  0.111422  2.108770
  S    -7.200582  3.892674  2.220042
  S    -4.306087  0.866582 -0.670195
  S    -4.203599  4.428913 -0.472794
  S    -5.158419  1.436497  3.335379
  S    -5.025750  5.144424  3.579230
