16  
    
  C    -3.035051  2.122974  1.788668
  C    -2.968306  5.928791  1.957306
  C    -4.147137  1.544806  1.044056
  C    -4.232807  5.431992  1.455819
  N    -2.066266  2.509496  1.015042
  N    -1.972900  6.079378  1.088947
  N    -3.982711  1.482659 -0.260547
  N    -4.169011  5.259812  0.178747
  N    -4.815114  1.631921  3.461051
  N    -4.598503  5.634411  3.971213
  S    -5.509327  1.149699  2.041627
  S    -5.507618  5.269264  2.680677
  S    -2.476775  2.208284 -0.537446
  S    -2.738960  5.766867 -0.412903
  S    -3.314968  2.319996  3.458591
  S    -2.975418  6.070917  3.691399
