16  
    
  C     2.852395  5.232370  3.295051
  C     2.913456  9.019606  3.418688
  C     1.668526  4.655644  2.699591
  C     1.797406  8.434370  2.724436
  N     3.841392  5.526195  2.462818
  N     3.854521  9.359477  2.538199
  N     1.835184  4.334391  1.424541
  N     1.796028  8.388015  1.383955
  N     1.330238  4.718855  5.273320
  N     1.184368  8.345466  5.214365
  S     0.484140  4.228703  3.865624
  S     0.588947  7.801457  3.779854
  S     3.303630  5.068239  0.991390
  S     3.317673  8.875033  1.019065
  S     2.783105  5.496653  4.984725
  S     2.607164  9.103634  5.204961
