16  
    
  C    -4.724605  0.994762  1.434564
  C    -4.622938  4.622262  1.965213
  C    -5.917547  0.643217  0.725190
  C    -5.869675  4.241198  1.345746
  N    -3.684416  0.988387  0.631678
  N    -3.614076  4.735509  1.104791
  N    -5.789159  0.671533 -0.610613
  N    -5.779730  4.074453  0.035847
  N    -6.603698  0.920179  3.280541
  N    -6.570280  4.606419  3.738002
  S    -7.279613  0.474097  1.781254
  S    -7.260594  4.129353  2.327059
  S    -4.216040  0.966915 -0.927042
  S    -4.239224  4.512920 -0.447318
  S    -4.908414  1.148439  3.178752
  S    -4.943796  4.859002  3.670504
