16  
    
  C    -0.398043  3.479615  2.837241
  C    -0.671423  6.871084  2.641152
  C    -1.613606  3.099586  2.189621
  C    -1.773733  6.354971  1.965510
  N     0.633824  3.711151  2.029351
  N     0.346202  7.152365  1.873209
  N    -1.410046  2.730183  0.917147
  N    -1.656381  6.230865  0.666836
  N    -2.116370  3.179038  4.736950
  N    -2.552154  6.634123  4.304478
  S    -2.940682  2.918277  3.277785
  S    -3.186112  6.055017  2.863143
  S     0.150307  3.247254  0.528818
  S    -0.079170  6.638062  0.380091
  S    -0.536493  3.768706  4.560887
  S    -0.970552  7.071855  4.325349
