16  
    
  C    -5.372559  1.283776  1.411102
  C    -5.357996  4.575053  1.597476
  C    -6.593233  0.900807  0.848094
  C    -6.652449  4.179211  1.088495
  N    -4.338411  1.213754  0.592733
  N    -4.464599  4.698960  0.648115
  N    -6.489086  0.690383 -0.469494
  N    -6.650874  3.944864 -0.208713
  N    -7.120590  1.085363  3.378774
  N    -6.868147  4.834697  3.503340
  S    -7.903680  0.765293  1.959343
  S    -7.818282  4.059126  2.320472
  S    -4.921927  0.734706 -0.840195
  S    -5.117294  4.332310 -0.789508
  S    -5.469117  1.323060  3.137670
  S    -5.212871  4.728173  3.292842
