16  
    
  C    -3.318292  1.908780  2.023602
  C    -3.098779  5.489875  2.081907
  C    -4.556487  1.517884  1.394107
  C    -4.215802  4.849256  1.483193
  N    -2.366958  2.187385  1.125494
  N    -2.094817  5.777415  1.291471
  N    -4.435678  1.309202  0.104550
  N    -4.032655  4.590236  0.205789
  N    -4.991259  1.527462  3.970280
  N    -4.937603  5.192259  3.978343
  S    -5.803429  1.098111  2.547316
  S    -5.550282  4.488360  2.586560
  S    -2.897536  1.808108 -0.368473
  S    -2.558043  5.252897 -0.228305
  S    -3.301406  1.869718  3.786507
  S    -3.412955  5.800950  3.720590
