16  
    
  C    -1.721008  2.285531  1.960327
  C    -1.729234  6.358913  2.137066
  C    -3.011130  2.054521  1.251940
  C    -2.852370  5.763203  1.406665
  N    -0.719113  2.493214  1.124880
  N    -0.656661  6.464254  1.348079
  N    -2.890279  1.895586 -0.056795
  N    -2.748958  5.632884  0.098414
  N    -3.514853  2.293287  3.781227
  N    -3.616725  6.205819  3.927463
  S    -4.293582  1.872424  2.374252
  S    -4.208006  5.570038  2.521855
  S    -1.302210  2.210020 -0.431261
  S    -1.150763  5.894827 -0.131066
  S    -1.849813  2.380129  3.682108
  S    -2.093797  6.824210  3.772227
