16  
    
  C     0.193951  3.777917  2.841074
  C     0.326784  7.457761  2.734457
  C    -0.897339  3.078012  2.167973
  C    -0.974835  7.467521  2.146111
  N     1.265436  3.913585  2.078476
  N     1.307481  7.539569  1.821515
  N    -0.724436  2.973317  0.844624
  N    -0.984185  7.529555  0.813291
  N    -1.525936  3.030025  4.599088
  N    -1.375517  7.459536  4.747707
  S    -2.260718  2.758136  3.103484
  S    -2.249435  7.354097  3.335335
  S     0.792792  3.610521  0.490397
  S     0.645536  7.591023  0.312646
  S     0.012779  3.542866  4.599213
  S     0.276027  7.606840  4.511077
