16  
    
  C     2.878128  5.475048  3.880854
  C     2.423386  8.604491  3.327811
  C     1.774044  4.678944  3.392492
  C     1.260869  8.032259  2.635755
  N     3.911919  5.553122  3.032675
  N     3.485163  8.690778  2.561519
  N     1.815324  4.360299  2.085928
  N     1.453744  7.736247  1.353098
  N     1.168508  5.409053  5.801280
  N     0.544002  8.430271  5.067104
  S     0.415601  4.800222  4.400565
  S    -0.120997  7.836666  3.679734
  S     3.368103  4.743856  1.671700
  S     2.962156  8.249705  0.995130
  S     2.811916  5.745904  5.556413
  S     2.093076  8.815594  5.024682
