16  
    
  C    -5.205179  1.017835  1.804838
  C    -5.202482  4.987455  1.343352
  C    -6.432934  0.558557  1.191782
  C    -6.367069  4.477692  0.657927
  N    -4.210337  1.247223  0.947328
  N    -4.122749  4.931698  0.595144
  N    -6.237542  0.292171 -0.111050
  N    -6.129469  4.164193 -0.612267
  N    -7.055031  1.042634  3.558693
  N    -6.940314  4.714583  3.137241
  S    -7.872552  0.496661  2.236725
  S    -7.720597  4.276350  1.704267
  S    -4.776487  0.790170 -0.529256
  S    -4.493519  4.439562 -0.924285
  S    -5.451693  1.339123  3.487534
  S    -5.390922  5.280984  2.996695
