16  
    
  C     0.944845  3.834329  2.531718
  C     1.595904  7.978988  3.279009
  C    -0.351768  3.559239  1.898835
  C     0.242580  7.890423  2.650647
  N     1.959253  3.992448  1.683512
  N     2.642304  8.079821  2.438682
  N    -0.157412  3.307995  0.628323
  N     0.294975  7.851590  1.308593
  N    -0.805633  3.556089  4.412827
  N    -0.166779  7.858416  5.172318
  S    -1.635253  3.181005  2.994251
  S    -1.067816  7.879029  3.787978
  S     1.346676  3.717696  0.189977
  S     1.883161  7.962481  0.947552
  S     0.685566  4.087532  4.202124
  S     1.453262  8.045990  5.040104
