16  
    
  C    -3.583033  2.019384  1.774343
  C    -4.030556  5.279485  1.644018
  C    -4.803053  1.552906  1.093327
  C    -5.193106  4.639369  1.028903
  N    -2.653368  2.321867  0.880087
  N    -2.974314  5.454081  0.866224
  N    -4.730606  1.371273 -0.241503
  N    -5.011977  4.378469 -0.280271
  N    -5.135238  1.253004  3.666676
  N    -5.692389  5.081980  3.564676
  S    -6.028248  1.074518  2.233158
  S    -6.387504  4.400779  2.191596
  S    -3.222640  1.860352 -0.625913
  S    -3.520248  4.990949 -0.641495
  S    -3.677927  2.162105  3.449841
  S    -4.106840  5.516025  3.343632
