16  
    
  C    -4.117152  1.372722  1.698792
  C    -4.164469  5.256131  1.924642
  C    -5.347674  1.192121  0.978218
  C    -5.384594  5.191123  1.221522
  N    -3.047441  1.227864  0.941337
  N    -3.054135  5.206257  1.181611
  N    -5.199723  1.147507 -0.348833
  N    -5.309665  5.074072 -0.107640
  N    -5.961021  1.539366  3.502173
  N    -5.879978  4.882361  3.845229
  S    -6.725734  1.318351  2.091660
  S    -6.713971  4.913902  2.417900
  S    -3.584433  1.138854 -0.630555
  S    -3.645559  5.163652 -0.430372
  S    -4.319942  1.673679  3.418874
  S    -4.275567  5.271158  3.699910
