16  
    
  C    -6.060765  0.960693  1.490849
  C    -6.141674  4.493015  1.823845
  C    -7.145662  0.206449  0.918514
  C    -7.341102  4.058289  1.036981
  N    -5.153254  1.311496  0.591369
  N    -5.058215  4.653704  1.072886
  N    -7.193302  0.090529 -0.412736
  N    -7.083653  4.030512 -0.268569
  N    -7.471189  0.171103  3.464566
  N    -8.080019  4.236139  3.493279
  S    -8.299034 -0.285756  2.169768
  S    -8.722970  3.742646  2.041551
  S    -5.725354  0.792915 -0.925916
  S    -5.455833  4.414726 -0.512938
  S    -6.087798  1.012178  3.188516
  S    -6.429281  4.477111  3.505803
