16  
    
  C    -4.461375  1.295471  1.874069
  C    -4.667301  4.789931  1.632478
  C    -5.667005  0.861641  1.218514
  C    -5.784320  4.375941  0.854197
  N    -3.500762  1.720211  1.035213
  N    -3.597758  5.170814  0.963256
  N    -5.484282  0.764629 -0.107113
  N    -5.594487  4.518837 -0.446781
  N    -6.101749  0.752195  3.786948
  N    -6.492709  3.931394  3.297794
  S    -6.840498  0.289194  2.410243
  S    -7.142695  3.759628  1.785356
  S    -4.034492  1.347045 -0.535608
  S    -3.988420  5.035580 -0.698534
  S    -4.515135  1.156303  3.729433
  S    -5.003479  4.552297  3.349402
