16  
    
  C     2.074551  4.648038  2.920476
  C     2.198349  8.550821  3.097470
  C     0.815831  4.281948  2.318065
  C     1.018844  8.017371  2.471600
  N     3.137477  4.727450  2.122471
  N     3.255269  8.707403  2.325198
  N     0.955264  4.085705  1.011585
  N     1.258442  7.757008  1.174804
  N     0.290924  4.417010  4.878871
  N     0.425780  8.477547  4.964850
  S    -0.410448  3.847674  3.442134
  S    -0.266183  7.799145  3.585554
  S     2.492248  4.450992  0.637542
  S     2.826038  8.082994  0.797927
  S     1.939086  4.836341  4.667465
  S     2.042815  8.914183  4.762434
