16  
    
  C    -4.186480  1.476378  1.904616
  C    -4.085041  4.997368  1.999363
  C    -5.434574  1.168992  1.164152
  C    -5.417697  4.683089  1.421563
  N    -3.138250  1.424622  1.097737
  N    -3.054597  5.049513  1.163884
  N    -5.275360  1.083170 -0.161189
  N    -5.322675  4.435516  0.120067
  N    -6.012461  1.517591  3.615759
  N    -5.810508  5.361487  3.923407
  S    -6.868768  1.211858  2.171567
  S    -6.738875  5.012648  2.521256
  S    -3.655349  1.181552 -0.391656
  S    -3.753284  4.674026 -0.343487
  S    -4.370226  1.491532  3.573308
  S    -4.150218  5.506722  3.628369
