16  
    
  C    -3.796393  1.943793  1.942414
  C    -3.491706  5.364534  1.978073
  C    -4.681165  1.009164  1.334775
  C    -4.722657  4.869748  1.511826
  N    -2.719014  2.268983  1.223111
  N    -2.476783  5.409264  1.094514
  N    -4.373328  0.777419  0.063750
  N    -4.692882  4.500096  0.251738
  N    -5.616232  1.466275  3.651877
  N    -5.047976  5.292062  3.965296
  S    -6.028017  0.611726  2.311587
  S    -6.042923  4.921369  2.654326
  S    -2.974270  1.604073 -0.260620
  S    -3.116653  4.804480 -0.259438
  S    -4.164778  2.221910  3.641880
  S    -3.556905  5.739560  3.605459
