16  
    
  C    -5.369116  1.289854  1.412719
  C    -5.356676  4.579330  1.596165
  C    -6.587085  0.901058  0.853577
  C    -6.653472  4.172984  1.083967
  N    -4.340593  1.208842  0.593413
  N    -4.466301  4.691801  0.651144
  N    -6.488162  0.694915 -0.461097
  N    -6.648431  3.944023 -0.210250
  N    -7.115316  1.087804  3.374798
  N    -6.863151  4.839198  3.500267
  S    -7.908952  0.770950  1.962235
  S    -7.815679  4.058517  2.319620
  S    -4.924650  0.735956 -0.838946
  S    -5.112926  4.331158 -0.790085
  S    -5.472445  1.321504  3.136750
  S    -5.209664  4.731090  3.292082
