16  
    
  C     0.594966  3.613736  2.747324
  C     0.758729  7.672806  2.695451
  C    -0.646657  3.222165  2.128866
  C    -0.463963  7.102298  2.039838
  N     1.625774  3.686323  1.932453
  N     1.675057  8.059172  1.794384
  N    -0.585934  3.290381  0.795990
  N    -0.471241  7.127651  0.708016
  N    -1.248722  3.278170  4.615403
  N    -0.857517  6.903698  4.520946
  S    -2.000785  2.837365  3.181934
  S    -1.716266  6.609862  3.121312
  S     0.995079  3.615724  0.386130
  S     1.049388  7.739792  0.321108
  S     0.407118  3.593660  4.452067
  S     0.617868  7.669992  4.375067
