16  
    
  C     3.121304  5.048129  3.412195
  C     3.234471  8.853366  3.600120
  C     1.949816  4.555409  2.690631
  C     2.017599  8.561150  2.930583
  N     4.143669  5.426819  2.638306
  N     4.261742  9.082377  2.816611
  N     2.248491  4.285692  1.383577
  N     2.145454  8.589550  1.600616
  N     1.172864  5.031526  5.142981
  N     1.489389  8.928516  5.500320
  S     0.640425  4.152221  3.844550
  S     0.703332  8.563977  4.061398
  S     3.692867  5.001720  1.107706
  S     3.748611  8.860451  1.308857
  S     2.804210  5.346890  5.052463
  S     3.156793  9.295834  5.263998
