16  
    
  C    -4.281607  1.601446  2.011678
  C    -4.641238  5.211229  1.677583
  C    -5.370699  0.924233  1.371748
  C    -5.822185  4.735591  1.096799
  N    -3.194625  1.751052  1.237780
  N    -3.620556  5.401428  0.838480
  N    -5.148044  0.677083  0.060861
  N    -5.770040  4.484117 -0.215473
  N    -6.224889  1.568626  3.735596
  N    -6.299784  5.157122  3.705907
  S    -6.862813  0.964215  2.357193
  S    -7.123882  4.617786  2.312434
  S    -3.661812  1.168827 -0.294914
  S    -4.133062  4.831155 -0.638121
  S    -4.605451  1.956288  3.656512
  S    -4.621987  5.481287  3.406851
