16  
    
  C    -1.688110  2.475834  2.447980
  C    -1.753329  6.123040  2.442804
  C    -2.915774  2.131611  1.735874
  C    -2.925587  5.608978  1.737045
  N    -0.672049  2.723798  1.608998
  N    -0.747834  6.454688  1.626588
  N    -2.801976  1.989977  0.397989
  N    -2.721841  5.464767  0.401417
  N    -3.555148  2.331058  4.208710
  N    -3.568167  5.718036  4.207301
  S    -4.375285  2.185276  2.759915
  S    -4.292263  5.379353  2.714602
  S    -1.209280  2.368062  0.085947
  S    -1.119714  5.874107  0.098329
  S    -1.940645  2.702436  4.110566
  S    -1.924509  6.178138  4.187806
