16  
    
  C     2.212763  4.465402  3.036792
  C     1.955853  8.192307  3.097267
  C     1.023101  4.009642  2.364873
  C     0.806205  7.533124  2.506345
  N     3.350308  4.508887  2.335927
  N     3.070882  8.239664  2.363644
  N     1.255979  3.706571  1.112239
  N     1.056268  6.981604  1.327569
  N     0.222550  4.354242  4.808569
  N     0.106264  8.192101  4.957698
  S    -0.408914  3.957372  3.253527
  S    -0.616920  7.625351  3.542402
  S     2.908199  4.052442  0.761848
  S     2.665452  7.471549  0.971709
  S     1.851495  4.825855  4.691092
  S     1.694714  8.770053  4.725048
