16  
    
  C    -1.846993  2.313943  2.649130
  C    -1.786643  5.878505  2.356604
  C    -3.025410  1.969890  1.952139
  C    -2.967567  5.655499  1.625432
  N    -0.905910  2.787702  1.816983
  N    -0.679045  5.968528  1.593075
  N    -2.957047  1.858083  0.613163
  N    -2.831855  5.779373  0.304588
  N    -3.730225  2.081130  4.397940
  N    -3.497125  5.606390  4.069454
  S    -4.512722  1.921097  2.929194
  S    -4.339708  5.363714  2.629073
  S    -1.396577  2.411575  0.284690
  S    -1.176140  5.860132  0.000794
  S    -2.085428  2.413114  4.335881
  S    -1.848106  5.821219  4.071177
