16  
    
  C     0.689692  3.844276  3.169170
  C     1.222338  7.509312  2.832328
  C    -0.492008  3.332747  2.507323
  C     0.043924  7.061230  2.140375
  N     1.764903  4.068537  2.446509
  N     2.325619  7.688405  2.085900
  N    -0.358718  3.344226  1.216505
  N     0.199003  6.796018  0.852219
  N    -1.018621  3.229422  5.017862
  N    -0.769025  7.397089  4.562143
  S    -1.875477  2.975282  3.524415
  S    -1.411608  6.794342  3.155701
  S     1.244502  3.772215  0.870393
  S     1.782694  7.170440  0.544287
  S     0.541426  3.619599  4.854489
  S     0.801152  7.948094  4.550726
