16  
    
  C    -5.686658  0.878922  1.543868
  C    -5.907113  4.697850  1.336868
  C    -6.899363  0.509084  0.864775
  C    -7.139941  4.260347  0.669021
  N    -4.542277  1.008799  0.810290
  N    -4.848729  4.928143  0.541675
  N    -6.730474  0.247330 -0.435989
  N    -6.994256  4.095307 -0.676609
  N    -7.558768  0.544253  3.379446
  N    -7.583695  4.521983  3.202601
  S    -8.240386  0.203485  1.900788
  S    -8.389392  3.991380  1.829308
  S    -5.119300  0.589989 -0.722900
  S    -5.392699  4.490607 -0.948420
  S    -5.953206  1.057096  3.238240
  S    -5.912296  4.788195  3.079930
