16  
    
  C     0.525580  3.678484  2.948475
  C     0.563588  7.500459  2.923809
  C    -0.831135  3.561542  2.361242
  C    -0.650587  7.106465  2.155291
  N     1.467911  3.762052  2.019964
  N     1.650492  7.648516  2.136368
  N    -0.834109  3.604488  1.035025
  N    -0.415497  6.816128  0.861948
  N    -1.108718  3.476463  4.942074
  N    -1.408278  7.278280  4.634480
  S    -2.045404  3.320329  3.586143
  S    -2.097031  7.054075  3.121513
  S     0.687822  3.863515  0.547467
  S     1.101208  7.196458  0.609983
  S     0.526865  3.570871  4.708692
  S     0.242815  7.804381  4.636994
