16  
    
  C     2.848351  5.290205  3.860920
  C     2.443974  8.514375  3.402516
  C     1.653643  4.703460  3.305786
  C     1.291220  7.972388  2.735784
  N     3.815457  5.462436  3.001115
  N     3.472441  8.732540  2.560864
  N     1.878769  4.170461  2.107657
  N     1.404760  7.845440  1.420589
  N     1.218973  5.223593  5.791148
  N     0.334566  8.498848  5.033799
  S     0.356590  4.759349  4.448575
  S    -0.090093  7.674333  3.629527
  S     3.373428  4.764206  1.589541
  S     2.966054  8.264951  1.025428
  S     2.806831  5.730343  5.527643
  S     2.024103  8.883413  5.114118
