16  
    
  C    -3.667498  1.813010  2.087075
  C    -3.453158  5.298462  2.014835
  C    -4.726312  1.115238  1.323412
  C    -4.685299  4.831583  1.467998
  N    -2.671347  2.145430  1.299133
  N    -2.429387  5.404029  1.148490
  N    -4.386315  0.728827  0.103246
  N    -4.645100  4.573233  0.167681
  N    -5.614804  1.513336  3.671493
  N    -5.126005  5.314731  4.041101
  S    -6.130447  0.646340  2.232594
  S    -5.947477  4.934096  2.680982
  S    -2.938102  1.484882 -0.215446
  S    -3.096888  4.813786 -0.291758
  S    -4.008523  2.160436  3.716111
  S    -3.487252  5.748764  3.724113
