16  
    
  C     2.578769  5.018192  3.593945
  C     2.209845  8.845004  3.417990
  C     1.430071  4.294921  3.077750
  C     1.235573  7.963908  2.811661
  N     3.519867  5.274353  2.717521
  N     3.260872  9.084479  2.641982
  N     1.462302  4.067519  1.764843
  N     1.555172  7.482506  1.594952
  N     0.952151  4.858192  5.539675
  N     0.510793  8.259051  5.210244
  S     0.160034  4.224041  4.279261
  S    -0.083056  7.594816  3.866628
  S     2.973035  4.621997  1.254987
  S     2.967339  8.303434  1.161197
  S     2.487158  5.350926  5.271430
  S     1.943832  9.115960  5.080166
