16  
    
  C     0.591598  3.798302  2.762123
  C     0.637677  7.674223  2.733581
  C    -0.670519  3.282882  2.174290
  C    -0.569431  6.979986  2.177541
  N     1.595008  3.874049  1.895260
  N     1.542387  7.902057  1.775921
  N    -0.636551  3.259847  0.830687
  N    -0.575395  6.684246  0.884664
  N    -0.980155  3.419809  4.751366
  N    -1.015112  7.334034  4.675258
  S    -1.828161  3.223722  3.369303
  S    -1.757525  6.632626  3.377818
  S     0.915908  3.747569  0.380226
  S     0.912564  7.301404  0.377418
  S     0.700768  3.578943  4.501230
  S     0.462249  8.020955  4.433983
