16  
    
  C    -2.619895  2.689516  2.008428
  C    -2.445320  6.140544  2.131211
  C    -3.802366  2.076379  1.513203
  C    -3.583567  5.659748  1.405642
  N    -1.589553  2.738787  1.168307
  N    -1.350828  6.288184  1.406922
  N    -3.748592  1.878115  0.197810
  N    -3.359589  5.363585  0.103169
  N    -4.320129  2.491382  4.004669
  N    -4.419993  6.077285  3.797546
  S    -5.093150  1.895986  2.631854
  S    -4.927117  5.362844  2.384694
  S    -2.171083  2.136127 -0.240132
  S    -1.870132  6.031038 -0.193989
  S    -2.686907  2.873248  3.798562
  S    -2.879336  6.653126  3.739802
