16  
    
  C     0.970274  4.107952  2.636031
  C     1.613899  8.533716  3.082471
  C    -0.207220  3.590083  1.936098
  C     0.310646  8.248192  2.470200
  N     2.010414  4.316962  1.828886
  N     2.614926  8.734590  2.215492
  N     0.035630  3.384227  0.655693
  N     0.339272  8.175127  1.121983
  N    -0.927565  3.742243  4.321047
  N    -0.140437  8.197805  5.006492
  S    -1.548576  3.145338  2.971319
  S    -0.993872  7.999937  3.603699
  S     1.553602  3.980593  0.300715
  S     1.972717  8.439437  0.738297
  S     0.601673  4.373673  4.242974
  S     1.385584  8.760620  4.826963
