16  
    
  C     1.023007  4.049467  2.698048
  C     1.093633  7.591946  3.138199
  C    -0.209764  3.401356  2.271435
  C    -0.198948  7.220233  2.516746
  N     1.906695  4.086689  1.753735
  N     2.086067  7.602545  2.245873
  N    -0.193321  2.935347  1.037084
  N    -0.076624  6.928868  1.216468
  N    -0.707888  4.319574  4.630791
  N    -0.598016  7.416160  5.049561
  S    -1.453259  3.407435  3.461151
  S    -1.456943  7.125797  3.726753
  S     1.304145  3.236191  0.489061
  S     1.520970  7.204717  0.776248
  S     0.902743  4.652538  4.340880
  S     0.917757  7.983443  4.782304
