16  
    
  C     0.854759  3.832375  2.891226
  C     1.153011  7.641813  3.055799
  C    -0.395912  3.327340  2.380638
  C    -0.101071  7.154145  2.396494
  N     1.802948  3.817720  1.996413
  N     2.193415  7.676742  2.197741
  N    -0.381890  3.163083  1.058991
  N     0.038987  6.708386  1.133352
  N    -0.713791  3.851018  4.939512
  N    -0.656427  7.547057  4.861994
  S    -1.566819  3.364395  3.635130
  S    -1.409010  7.041747  3.472149
  S     1.216521  3.369055  0.587174
  S     1.606159  7.078638  0.801040
  S     0.918380  4.261782  4.633887
  S     0.916539  7.983698  4.749288
