16  
    
  C     2.079522  4.543293  2.941807
  C     2.065796  8.095924  3.187691
  C     0.929447  3.855926  2.398025
  C     0.916441  7.609016  2.521317
  N     3.181322  4.578939  2.178783
  N     3.161719  8.089017  2.434674
  N     1.095926  3.655614  1.080402
  N     1.103156  7.239070  1.254652
  N     0.260605  4.468513  4.852411
  N     0.033455  8.205274  4.817405
  S    -0.514844  3.952822  3.500474
  S    -0.538398  7.457029  3.401901
  S     2.631926  4.006286  0.740308
  S     2.648851  7.616789  0.867037
  S     1.907813  4.770378  4.681825
  S     1.699255  8.356200  4.892048
