16  
    
  C    -4.181343  1.428534  1.889054
  C    -4.001785  5.198182  1.951247
  C    -5.388141  1.106383  1.255667
  C    -5.265951  4.786801  1.386563
  N    -3.111014  1.388241  1.064197
  N    -2.946975  4.969021  1.180446
  N    -5.306119  1.048433 -0.099679
  N    -5.229311  4.393202  0.097093
  N    -5.980048  1.404205  3.851799
  N    -5.744298  5.331591  3.937949
  S    -6.757314  1.110090  2.372398
  S    -6.595680  4.833561  2.541597
  S    -3.706656  1.191698 -0.455673
  S    -3.619858  4.455957 -0.325091
  S    -4.348984  1.637284  3.682087
  S    -4.107676  5.689226  3.663008
