16  
    
  C    -1.007491  3.119019  2.461318
  C    -0.638826  6.492153  2.353260
  C    -2.279725  2.744663  1.795504
  C    -1.898290  6.278336  1.679116
  N     0.054953  3.060212  1.677302
  N     0.378396  6.614671  1.559853
  N    -2.140136  2.665741  0.472549
  N    -1.787300  6.059003  0.391566
  N    -2.839672  3.220768  4.307667
  N    -2.354928  6.547113  4.138537
  S    -3.638254  2.868956  2.875836
  S    -3.176681  6.166495  2.778296
  S    -0.514713  2.703467  0.160861
  S    -0.155486  6.511271  0.032653
  S    -1.181166  3.377898  4.154264
  S    -0.737052  6.806727  4.027170
