16  
    
  C     1.969564  4.784574  2.985779
  C     2.368522  8.582207  3.124032
  C     0.840381  4.091650  2.380971
  C     1.137236  8.090402  2.494523
  N     2.983903  5.056660  2.164442
  N     3.389313  8.600451  2.263934
  N     0.972511  4.110158  1.046849
  N     1.257907  7.861528  1.206479
  N     0.314826  4.333557  4.790940
  N     0.464100  8.350422  4.916286
  S    -0.523274  4.046753  3.463225
  S    -0.186779  7.746615  3.498601
  S     2.547710  4.580597  0.659721
  S     2.743684  8.254593  0.767393
  S     1.818685  5.004937  4.709287
  S     2.035743  8.841014  4.895105
