16  
    
  C    -1.587875  2.869304  2.029351
  C    -1.169771  6.786274  2.212552
  C    -2.561743  2.003355  1.387839
  C    -2.472428  6.469393  1.693400
  N    -0.508739  3.147087  1.269923
  N    -0.181382  6.813448  1.296668
  N    -2.381918  1.838559  0.058506
  N    -2.416440  6.231353  0.391401
  N    -3.350051  2.385555  3.867726
  N    -2.827748  6.913453  4.164539
  S    -3.876802  1.639349  2.457768
  S    -3.683628  6.322871  2.878551
  S    -0.831472  2.475660 -0.207425
  S    -0.889606  6.494900 -0.182689
  S    -1.873053  3.174349  3.720959
  S    -1.238922  7.117060  3.881955
