16  
    
  C     2.254460  4.304138  3.102227
  C     1.975492  8.264482  3.142037
  C     1.090899  4.084211  2.291517
  C     0.845779  7.607446  2.566245
  N     3.337703  4.504338  2.355850
  N     3.047936  8.186732  2.350345
  N     1.336394  3.796223  1.008828
  N     1.095849  7.034088  1.380261
  N     0.256024  4.367774  4.756620
  N     0.132308  8.231345  4.896690
  S    -0.408457  3.931414  3.296189
  S    -0.585753  7.596023  3.563597
  S     2.934562  4.029810  0.811814
  S     2.583556  7.437699  0.932482
  S     1.816094  4.812531  4.663630
  S     1.647855  8.875361  4.727134
