16  
    
  C     0.894112  4.002978  2.524465
  C     1.483285  8.432350  3.177492
  C    -0.305780  3.504114  1.825024
  C     0.216439  8.180880  2.529212
  N     1.837762  4.411745  1.704137
  N     2.505071  8.467712  2.336825
  N    -0.123159  3.189993  0.540451
  N     0.306412  8.162423  1.225350
  N    -0.919952  3.735439  4.363588
  N    -0.177486  8.153556  5.041391
  S    -1.557644  3.137190  2.955588
  S    -1.064060  7.988041  3.661890
  S     1.476994  3.712623  0.209022
  S     1.948221  8.411966  0.798651
  S     0.688685  4.318420  4.257873
  S     1.431478  8.560225  4.901786
