16  
    
  C    -5.379160  1.181525  1.690728
  C    -5.150244  4.743009  1.420154
  C    -6.638432  0.887887  1.078358
  C    -6.389388  4.383034  0.786120
  N    -4.323673  1.072401  0.878505
  N    -4.118499  4.732855  0.585999
  N    -6.601413  0.740995 -0.264925
  N    -6.333445  4.058511 -0.510674
  N    -7.220370  0.998322  3.560001
  N    -6.985158  5.167384  3.111780
  S    -8.021417  0.691402  2.121420
  S    -7.752315  4.482048  1.802308
  S    -4.947682  0.747667 -0.641294
  S    -4.750483  4.325654 -0.910406
  S    -5.552273  1.282537  3.370357
  S    -5.286958  5.139857  3.122131
