16  
    
  C    -3.832927  1.598317  1.781931
  C    -3.982255  5.515059  1.878162
  C    -5.112810  1.240680  1.121629
  C    -5.149085  5.153695  1.176344
  N    -2.814409  1.611991  0.932130
  N    -2.921585  5.870858  1.148662
  N    -5.078252  1.179172 -0.197185
  N    -4.969253  5.293044 -0.132177
  N    -5.547103  1.477322  3.665735
  N    -5.833323  4.811561  3.588766
  S    -6.436886  1.337248  2.233290
  S    -6.605094  4.711118  2.040108
  S    -3.458009  1.430032 -0.627215
  S    -3.391717  5.664783 -0.388923
  S    -3.906257  1.731938  3.489621
  S    -4.168710  5.128558  3.572419
