16  
    
  C     1.970445  4.882281  3.035738
  C     2.346349  8.445131  3.174756
  C     0.837993  4.329514  2.312142
  C     1.135449  7.979425  2.490328
  N     2.952281  5.253998  2.219718
  N     3.327184  8.773861  2.356024
  N     1.072614  3.913574  1.026806
  N     1.210976  7.933987  1.171216
  N     0.191892  4.380220  4.951294
  N     0.468730  8.237651  4.986249
  S    -0.558886  4.146465  3.385152
  S    -0.221526  7.740006  3.560641
  S     2.525548  4.684866  0.676263
  S     2.818778  8.369694  0.752176
  S     1.739980  5.118543  4.801839
  S     2.083945  8.754779  4.852651
