16  
    
  C     3.101703  5.147853  3.410364
  C     3.392500  9.086148  3.481447
  C     1.980303  4.506271  2.742565
  C     2.104030  8.707939  3.007617
  N     4.056947  5.523728  2.574732
  N     4.369712  9.040929  2.551848
  N     2.155382  4.299956  1.454357
  N     2.090214  8.425837  1.693402
  N     1.153007  4.972560  5.102414
  N     1.619296  8.807019  5.500981
  S     0.611533  4.170335  3.732098
  S     0.796515  8.609290  4.060874
  S     3.630215  4.960038  1.108548
  S     3.579611  8.687426  1.096806
  S     2.771798  5.432416  5.126085
  S     3.250160  9.281733  5.286846
