16  
    
  C     0.577431  3.776821  2.737904
  C     0.649626  7.656433  2.732255
  C    -0.657445  3.321031  2.155350
  C    -0.578421  6.997701  2.204797
  N     1.596408  3.849607  1.854091
  N     1.512592  7.922457  1.763529
  N    -0.621131  3.252814  0.818313
  N    -0.557515  6.726966  0.927356
  N    -0.982040  3.382347  4.728554
  N    -1.034495  7.339328  4.652713
  S    -1.856933  3.206421  3.383062
  S    -1.744477  6.634267  3.336329
  S     0.906221  3.749242  0.385023
  S     0.916756  7.328352  0.376330
  S     0.699742  3.549341  4.487082
  S     0.474580  7.990938  4.427086
