16  
    
  C    -6.154015  0.884170  1.385344
  C    -6.085712  4.432078  1.852277
  C    -7.275919  0.151337  0.848091
  C    -7.269203  3.943724  1.101724
  N    -5.226614  1.331507  0.523133
  N    -4.993531  4.681919  1.095870
  N    -7.323560  0.130390 -0.474419
  N    -7.074337  3.923283 -0.220954
  N    -7.563435  0.265712  3.355756
  N    -8.008011  3.903516  3.578469
  S    -8.343407 -0.374849  2.032497
  S    -8.651188  3.574176  2.088857
  S    -5.908386  0.864918 -0.950863
  S    -5.510107  4.420309 -0.463095
  S    -6.075676  0.936542  3.160183
  S    -6.428227  4.439263  3.514382
