16  
    
  C    -1.738240  2.243161  1.896920
  C    -1.862515  6.579130  2.046383
  C    -3.036352  2.112292  1.348644
  C    -2.906795  5.742951  1.530894
  N    -0.691662  2.373093  1.068827
  N    -0.735842  6.671077  1.331129
  N    -2.981337  1.993165  0.016027
  N    -2.592262  5.268917  0.303589
  N    -3.446888  2.312379  3.858926
  N    -3.482029  6.015610  4.001257
  S    -4.279291  1.803452  2.508855
  S    -4.308911  5.504207  2.634149
  S    -1.394347  2.262130 -0.442845
  S    -1.143553  5.917257 -0.124613
  S    -1.781455  2.514362  3.633926
  S    -2.139978  7.002569  3.731528
