16  
    
  C    -2.431359  2.272407  2.133603
  C    -2.638756  5.663783  2.127167
  C    -3.718053  2.099573  1.521679
  C    -3.829838  5.162791  1.468453
  N    -1.383768  2.366017  1.270242
  N    -1.640993  5.831701  1.277221
  N    -3.617921  1.848264  0.213265
  N    -3.763104  5.065168  0.130120
  N    -4.174180  1.949544  4.032791
  N    -4.365594  5.269208  3.951550
  S    -5.006470  1.842087  2.645292
  S    -5.128672  4.989139  2.524421
  S    -1.993174  2.010654 -0.216301
  S    -2.297669  5.654786 -0.278408
  S    -2.596269  2.341542  3.911501
  S    -2.779373  5.722048  3.855197
