16  
    
  C     3.214668  4.953658  3.492894
  C     3.303677  9.236895  3.752939
  C     1.970794  4.659316  2.766918
  C     2.164410  8.865414  2.972319
  N     4.221948  5.163433  2.667596
  N     4.479694  9.245790  3.124476
  N     2.094098  4.526413  1.444084
  N     2.461631  8.611761  1.640914
  N     1.395346  5.135768  5.205869
  N     1.404898  8.893437  5.505393
  S     0.570838  4.586716  3.793151
  S     0.663733  8.786113  3.979174
  S     3.741611  4.797232  1.137084
  S     4.137095  9.014123  1.506430
  S     3.055584  5.240896  5.162869
  S     3.119234  9.257227  5.394911
