16  
    
  C     0.464343  3.570819  2.847919
  C     0.788655  7.698670  2.596907
  C    -0.645894  3.127864  2.044778
  C    -0.358585  7.187096  1.954221
  N     1.499477  3.964826  2.102025
  N     1.789513  8.029032  1.804587
  N    -0.416870  2.958970  0.760404
  N    -0.398927  7.231591  0.607189
  N    -1.364367  3.221575  4.534638
  N    -0.777399  6.756760  4.568588
  S    -1.948547  2.736897  3.053435
  S    -1.542343  6.520307  3.112730
  S     1.171583  3.611690  0.543235
  S     1.174114  7.834772  0.256442
  S     0.231748  3.723627  4.547411
  S     0.700333  7.533619  4.404781
