16  
    
  C    -0.326595  3.346028  2.709209
  C    -0.457829  6.947714  2.412812
  C    -1.609112  3.227136  2.044821
  C    -1.621145  6.411422  1.864633
  N     0.655543  3.402046  1.819792
  N     0.550069  7.142320  1.579113
  N    -1.617103  2.968366  0.732949
  N    -1.606265  6.278784  0.541020
  N    -2.094064  3.237247  4.658731
  N    -2.153153  6.720554  4.351681
  S    -2.884384  2.884789  3.203155
  S    -2.955630  6.165473  3.014027
  S    -0.029445  3.260197  0.291133
  S    -0.093996  6.748740  0.106493
  S    -0.458154  3.701621  4.419393
  S    -0.560172  7.108174  4.154104
