16  
    
  C     0.934850  3.850960  2.521729
  C     1.594546  7.965912  3.288089
  C    -0.352728  3.544841  1.902395
  C     0.250458  7.898077  2.649724
  N     1.969750  3.994266  1.704126
  N     2.638146  8.066561  2.446401
  N    -0.166605  3.320090  0.618414
  N     0.304562  7.846179  1.309077
  N    -0.811333  3.556998  4.400486
  N    -0.173266  7.852073  5.173362
  S    -1.634129  3.181041  2.989424
  S    -1.069196  7.871244  3.789422
  S     1.351631  3.717487  0.193950
  S     1.879364  7.953898  0.933676
  S     0.690487  4.081496  4.207922
  S     1.453104  8.044176  5.044734
