16  
    
  C     1.950287  4.106139  3.171929
  C     1.860174  7.930000  3.095952
  C     0.605756  3.961032  2.575475
  C     0.650127  7.479985  2.434396
  N     2.911859  4.379174  2.282506
  N     2.847799  8.276272  2.263500
  N     0.652578  3.891160  1.270303
  N     0.774853  7.400560  1.116166
  N     0.160813  4.278067  5.162642
  N     0.204692  7.453177  4.960794
  S    -0.767233  4.051810  3.718775
  S    -0.623048  7.094448  3.575002
  S     2.187258  4.069549  0.841636
  S     2.237469  8.052705  0.727355
  S     1.802364  4.233923  4.912395
  S     1.835191  7.839839  4.777445
