16  
    
  C     1.048543  4.401455  2.919132
  C     1.679617  8.553425  2.946876
  C    -0.050717  3.873168  2.152555
  C     0.440428  8.126301  2.353606
  N     2.090914  4.754352  2.222954
  N     2.670487  8.692031  2.088983
  N     0.178915  3.765964  0.859801
  N     0.539575  7.815719  1.061543
  N    -0.739357  3.875217  4.640614
  N    -0.048751  8.405444  4.833805
  S    -1.436781  3.557947  3.156348
  S    -0.876642  8.053870  3.424111
  S     1.794715  4.298130  0.615430
  S     2.115974  8.265756  0.625882
  S     0.798496  4.344761  4.687809
  S     1.535367  8.912664  4.653936
