16  
    
  C     3.190302  5.184112  3.429182
  C     3.707376  9.082252  3.385204
  C     2.052261  4.579110  2.837056
  C     2.422634  8.586866  2.849629
  N     4.099387  5.508647  2.551087
  N     4.630660  9.238376  2.502147
  N     2.047110  4.533899  1.499570
  N     2.452704  8.311059  1.548447
  N     1.299327  5.146986  5.261887
  N     2.079007  8.853913  5.359825
  S     0.670762  4.356196  3.938374
  S     1.135663  8.434409  4.071012
  S     3.605150  5.088832  1.038714
  S     3.979004  8.893834  1.015115
  S     2.931379  5.435264  5.223135
  S     3.590010  9.473427  5.005009
