16  
    
  C    -3.582672  1.641277  2.069827
  C    -3.270688  5.363223  2.060490
  C    -4.680297  1.103458  1.383029
  C    -4.562589  4.958145  1.544250
  N    -2.487399  1.793289  1.343104
  N    -2.256532  5.322674  1.211581
  N    -4.423831  0.786015  0.116095
  N    -4.537830  4.708812  0.224428
  N    -5.507014  1.446437  3.848515
  N    -5.055230  5.361017  3.973660
  S    -6.118349  0.985659  2.389459
  S    -5.879741  4.938610  2.641085
  S    -2.815986  1.237433 -0.176689
  S    -3.028131  4.975425 -0.279541
  S    -3.953401  1.928343  3.737660
  S    -3.400406  5.712318  3.741472
