16  
    
  C     2.033457  4.618563  3.279162
  C     1.602502  7.804421  3.013896
  C     0.856191  3.965270  2.739104
  C     0.373566  7.550283  2.321917
  N     2.998946  4.917080  2.431265
  N     2.730039  7.925489  2.290384
  N     0.866075  4.038553  1.424824
  N     0.527728  7.441784  0.986497
  N     0.384212  4.056077  5.229257
  N    -0.265236  7.582484  4.875045
  S    -0.481340  3.660671  3.768525
  S    -1.042860  7.288169  3.399910
  S     2.425216  4.479929  0.888498
  S     2.205775  7.721291  0.758900
  S     1.901078  4.703018  5.019889
  S     1.378381  7.813856  4.752786
