16  
    
  C     2.457396  5.015592  3.513431
  C     2.433411  8.710412  3.424240
  C     1.390354  4.255293  2.922497
  C     1.288110  8.023516  2.909079
  N     3.472422  5.224839  2.679416
  N     3.432351  8.800634  2.525524
  N     1.508261  4.156479  1.610018
  N     1.343059  7.728668  1.633796
  N     0.779995  4.498501  5.463489
  N     0.676434  8.558440  5.269766
  S     0.043627  4.201566  4.012415
  S     0.048760  7.656939  4.025754
  S     3.045492  4.653926  1.195316
  S     2.769818  8.322771  1.083543
  S     2.295400  5.159983  5.230366
  S     2.161117  9.125094  5.112587
