16  
    
  C     2.838113  5.233730  3.784971
  C     2.310910  8.577038  3.421351
  C     1.697091  4.445362  3.327878
  C     1.203497  7.920387  2.706521
  N     3.864169  5.316843  2.903917
  N     3.415256  8.781561  2.753201
  N     1.732685  4.221844  2.003430
  N     1.474855  7.785113  1.427052
  N     1.190132  4.956429  5.838146
  N     0.354753  8.443567  4.988516
  S     0.315059  4.606903  4.451283
  S    -0.133062  7.536265  3.761223
  S     3.248668  4.659141  1.443342
  S     3.027252  8.372300  1.160939
  S     2.663286  5.692821  5.453516
  S     1.908557  8.954278  5.025548
