16  
    
  C    -0.198282  3.203181  2.621837
  C    -0.105193  6.986290  2.472008
  C    -1.313691  2.603993  1.940742
  C    -1.262212  6.616539  1.784540
  N     0.695936  3.743579  1.786309
  N     0.930500  7.241434  1.711875
  N    -1.115853  2.284847  0.662667
  N    -1.210001  6.656817  0.478237
  N    -1.921841  2.838942  4.436514
  N    -1.864495  6.498278  4.276334
  S    -2.632537  2.275282  3.075990
  S    -2.563366  6.035404  2.843462
  S     0.405903  2.976597  0.320778
  S     0.356149  7.164690  0.129217
  S    -0.381758  3.495284  4.340580
  S    -0.237887  6.925138  4.171331
