16  
    
  C     2.467231  4.938604  3.496637
  C     2.505642  8.700877  3.432588
  C     1.317640  4.412634  2.823562
  C     1.312508  8.066741  2.904368
  N     3.507979  5.208675  2.709488
  N     3.448800  8.770550  2.492761
  N     1.509045  4.222818  1.493841
  N     1.310065  7.744896  1.594809
  N     0.749722  4.478488  5.484749
  N     0.674609  8.542174  5.351146
  S    -0.013546  4.110316  3.976306
  S     0.050912  7.694880  4.034948
  S     3.095624  4.647660  1.216831
  S     2.740860  8.320167  1.068331
  S     2.284671  5.144118  5.218244
  S     2.270880  9.124053  5.153040
