16  
    
  C     2.038322  4.427058  3.020224
  C     2.074345  7.984891  3.198990
  C     0.784537  4.022632  2.380295
  C     0.892396  7.558377  2.468018
  N     3.098596  4.476549  2.210625
  N     3.155339  8.052070  2.415917
  N     1.000070  3.610323  1.120024
  N     1.101268  7.376785  1.183990
  N     0.345670  4.418016  4.862197
  N     0.048661  8.090147  4.801639
  S    -0.531861  3.929804  3.528704
  S    -0.524065  7.433196  3.432286
  S     2.584348  4.002396  0.684312
  S     2.661547  7.678104  0.868029
  S     1.906332  4.795743  4.709875
  S     1.691508  8.316446  4.892703
