16  
    
  C     0.693253  3.942504  2.875837
  C     0.615995  7.604157  2.703311
  C    -0.523984  3.376714  2.292565
  C    -0.609027  6.852950  2.236549
  N     1.729848  3.904073  2.054518
  N     1.571671  7.864430  1.797257
  N    -0.494262  3.262697  0.952170
  N    -0.562173  6.548927  0.950257
  N    -0.977372  3.621175  4.830622
  N    -0.886297  7.300209  4.738899
  S    -1.843905  3.219128  3.397375
  S    -1.761583  6.650608  3.501717
  S     1.064421  3.667823  0.474368
  S     0.911987  7.116033  0.451031
  S     0.608946  4.023647  4.598433
  S     0.498171  8.083443  4.352960
