16  
    
  C     1.251144  4.594721  3.210354
  C     1.604676  7.967846  3.087034
  C    -0.017781  4.223272  2.739097
  C     0.316079  7.753582  2.411479
  N     2.150482  4.721909  2.273734
  N     2.651516  7.967884  2.262080
  N    -0.037566  3.964569  1.431051
  N     0.358879  7.587664  1.072206
  N    -0.168629  4.194623  5.287589
  N    -0.304822  8.120993  4.916758
  S    -1.245251  3.942700  3.966002
  S    -1.060422  8.207164  3.462437
  S     1.465322  4.385504  0.847673
  S     2.008173  7.687362  0.756656
  S     1.380422  4.660034  4.931764
  S     1.365014  8.161254  4.871276
