16  
    
  C    -3.520224  1.828434  1.806530
  C    -3.616459  5.730037  1.779918
  C    -4.548502  0.899532  1.255800
  C    -4.848541  5.354107  1.107705
  N    -2.513345  2.150464  0.995432
  N    -2.562341  5.877144  0.967379
  N    -4.377601  0.650747 -0.066312
  N    -4.721627  5.269200 -0.209326
  N    -5.300434  1.524439  3.612266
  N    -5.386803  5.143307  3.556183
  S    -5.919095  0.737821  2.307735
  S    -6.181519  4.936741  2.142227
  S    -2.970714  1.421749 -0.488353
  S    -3.176809  5.642776 -0.572694
  S    -3.801816  2.131592  3.450827
  S    -3.768388  5.719101  3.534971
