16  
    
  C     2.893451  5.126971  3.187017
  C     2.823539  9.060287  3.565213
  C     1.683886  4.524020  2.635974
  C     1.796961  8.379640  2.839164
  N     3.821471  5.426036  2.291833
  N     3.761762  9.633417  2.826064
  N     1.841818  4.186583  1.356794
  N     2.042718  8.213088  1.550887
  N     1.264176  4.845458  5.181405
  N     1.125404  8.641527  5.381078
  S     0.549468  4.166518  3.886189
  S     0.460505  8.055113  4.018266
  S     3.285322  4.850587  0.839860
  S     3.541755  9.098923  1.274962
  S     2.782924  5.476374  4.894269
  S     2.658902  9.251472  5.228869
