16  
    
  C    -1.734092  2.305986  1.951275
  C    -1.828970  6.560948  2.083958
  C    -3.041978  2.115205  1.316458
  C    -2.895854  5.640952  1.574319
  N    -0.738077  2.344681  1.090436
  N    -0.781624  6.780083  1.262558
  N    -3.003113  1.974829  0.005991
  N    -2.629059  5.238534  0.360851
  N    -3.414470  2.239941  3.877339
  N    -3.462426  6.002040  4.000121
  S    -4.252389  1.827084  2.529273
  S    -4.265015  5.503578  2.632060
  S    -1.430550  2.257448 -0.429175
  S    -1.210889  5.900466 -0.054453
  S    -1.783133  2.554128  3.649288
  S    -2.163313  7.006664  3.724323
