16  
    
  C     0.962435  4.198049  2.596225
  C     1.342429  7.950074  3.201485
  C    -0.039538  3.379753  1.908968
  C     0.100014  7.628997  2.587081
  N     2.091593  4.338057  1.868659
  N     2.326225  8.026874  2.323374
  N     0.236785  3.209766  0.616170
  N     0.135710  7.395912  1.289331
  N    -0.946432  3.929527  4.272479
  N    -0.467511  7.965273  5.083509
  S    -1.521475  3.216548  2.835716
  S    -1.263338  7.686453  3.625731
  S     1.753618  3.770557  0.372414
  S     1.726642  7.699860  0.828348
  S     0.602372  4.388520  4.263559
  S     1.158487  8.127921  4.917062
