16  
    
  C     3.086467  4.902710  3.396945
  C     2.997744  9.021387  3.758422
  C     1.835636  4.694162  2.665981
  C     1.693358  8.695446  3.253535
  N     4.163712  5.112294  2.645480
  N     3.996965  8.932988  2.899687
  N     2.015908  4.611147  1.361662
  N     1.767697  8.220938  2.041686
  N     1.246507  5.002560  5.172728
  N     1.536598  9.243924  5.774342
  S     0.491434  4.653429  3.760487
  S     0.497009  8.764693  4.611346
  S     3.666267  4.871771  1.067755
  S     3.314455  8.398200  1.508375
  S     2.875786  5.270530  5.070091
  S     3.116079  9.305733  5.434528
