16  
    
  C     0.950655  4.211562  2.582786
  C     1.130359  7.671414  3.154919
  C    -0.099533  3.348447  2.231038
  C    -0.142660  7.331629  2.542784
  N     2.031438  4.098144  1.737489
  N     2.112147  7.761673  2.262489
  N     0.049027  2.872415  0.985022
  N    -0.138025  7.126593  1.225294
  N    -0.759152  4.329020  4.490011
  N    -0.621418  7.546479  5.035430
  S    -1.487476  3.410378  3.346633
  S    -1.503934  7.217035  3.669042
  S     1.505614  3.385784  0.401303
  S     1.454296  7.369908  0.830918
  S     0.841856  4.767348  4.214769
  S     1.008493  8.032505  4.877386
