16  
    
  C    -1.783192  2.462351  2.028078
  C    -1.883355  6.506309  2.143230
  C    -3.033855  2.113155  1.455655
  C    -2.901331  5.574210  1.647209
  N    -0.778636  2.623457  1.175896
  N    -0.875372  6.677406  1.290713
  N    -2.962997  1.863882  0.168499
  N    -2.695560  5.125581  0.426027
  N    -3.435186  2.099343  4.009800
  N    -3.603500  6.202450  4.129896
  S    -4.350611  1.868710  2.645251
  S    -4.275550  5.337030  2.873672
  S    -1.402612  2.132011 -0.302102
  S    -1.329424  5.939638 -0.135792
  S    -1.858703  2.590677  3.769154
  S    -2.130810  6.915345  3.874612
