16  
    
  C    -4.344918  1.445348  1.933594
  C    -4.621589  4.926127  1.713656
  C    -5.634748  0.971409  1.413383
  C    -5.745331  4.393063  0.981194
  N    -3.430241  1.813955  1.044552
  N    -3.620191  5.290653  0.939874
  N    -5.588942  0.790943  0.113297
  N    -5.568159  4.334892 -0.326281
  N    -5.908637  0.959577  3.894122
  N    -6.458644  4.608371  3.429603
  S    -6.778785  0.574480  2.579506
  S    -7.010252  3.858214  2.071268
  S    -4.083311  1.360667 -0.443877
  S    -4.058948  4.978629 -0.615403
  S    -4.463295  1.642765  3.640543
  S    -4.861831  5.025943  3.421482
