16  
    
  C    -3.363992  1.910360  2.010854
  C    -3.095271  5.444446  2.143268
  C    -4.610103  1.434851  1.492047
  C    -4.232254  4.870163  1.417964
  N    -2.420418  2.093597  1.080702
  N    -2.116115  5.715846  1.290079
  N    -4.619456  1.349466  0.163518
  N    -4.058979  4.669883  0.093430
  N    -4.896514  1.348649  4.030592
  N    -4.944408  5.253310  3.855729
  S    -5.769501  1.057548  2.658386
  S    -5.558594  4.509746  2.443601
  S    -3.083981  1.751999 -0.358443
  S    -2.520373  5.119400 -0.233515
  S    -3.313674  1.882141  3.759529
  S    -3.340919  5.822422  3.832321
