16  
    
  C     2.454244  4.984064  3.504115
  C     2.481927  8.717538  3.427003
  C     1.366752  4.327269  2.871183
  C     1.328697  8.056377  2.886584
  N     3.483018  5.212764  2.686670
  N     3.438055  8.766922  2.502219
  N     1.509557  4.203264  1.536938
  N     1.326120  7.733083  1.614860
  N     0.759791  4.484222  5.498753
  N     0.676809  8.553514  5.314207
  S     0.014290  4.155826  3.990957
  S     0.048522  7.674122  4.030172
  S     3.075462  4.648252  1.210011
  S     2.743833  8.323544  1.080722
  S     2.287249  5.149934  5.218713
  S     2.216950  9.125736  5.138426
