16  
    
  C     0.548510  3.785510  2.960901
  C     0.576663  7.570578  2.878426
  C    -0.733670  3.581387  2.393051
  C    -0.540137  7.096916  2.108642
  N     1.512062  3.846802  2.044300
  N     1.704711  7.616817  2.182432
  N    -0.774144  3.205454  1.111974
  N    -0.281551  6.914598  0.833475
  N    -1.084069  3.719206  4.977137
  N    -1.311037  7.256082  4.496068
  S    -1.983881  3.294401  3.572221
  S    -1.993122  6.919408  2.972939
  S     0.852853  3.418200  0.574919
  S     1.385897  7.249218  0.610858
  S     0.472722  4.070765  4.686021
  S     0.282655  7.706204  4.544083
