16  
    
  C    -2.576624  2.378695  2.315770
  C    -2.745863  5.846077  2.037309
  C    -3.738173  1.779860  1.636596
  C    -3.905331  5.435981  1.304049
  N    -1.626124  2.854489  1.520897
  N    -1.674896  6.055291  1.252219
  N    -3.601618  1.811805  0.330439
  N    -3.767502  5.220358 -0.004328
  N    -4.355480  2.002644  4.153099
  N    -4.492723  5.495193  3.891365
  S    -5.042032  1.512670  2.726521
  S    -5.168127  4.896677  2.473737
  S    -2.173431  2.534207 -0.062796
  S    -2.178692  5.757459 -0.281308
  S    -2.768300  2.467037  4.053205
  S    -2.885204  5.737378  3.783622
