16  
    
  C    -4.344206  1.438998  1.935719
  C    -4.613966  4.926092  1.724421
  C    -5.619314  0.958176  1.412241
  C    -5.742385  4.368202  0.982272
  N    -3.427394  1.814609  1.036906
  N    -3.621165  5.291721  0.935137
  N    -5.574946  0.795726  0.110412
  N    -5.564476  4.343892 -0.330223
  N    -5.922100  0.944519  3.905555
  N    -6.462111  4.586575  3.418670
  S    -6.781878  0.569273  2.590341
  S    -7.007152  3.852824  2.064133
  S    -4.091608  1.367588 -0.458291
  S    -4.045437  4.983275 -0.633600
  S    -4.466136  1.634162  3.639400
  S    -4.870230  5.012807  3.437061
