16  
    
  C    -4.310463  1.769288  1.904833
  C    -4.358228  5.202564  1.745607
  C    -5.428043  1.102307  1.303462
  C    -5.556352  4.735602  1.216573
  N    -3.200178  1.703080  1.194908
  N    -3.385372  5.239197  0.852291
  N    -5.265446  0.701669  0.048525
  N    -5.578168  4.557760 -0.088543
  N    -6.057805  1.469606  3.727091
  N    -6.045889  5.111751  3.661258
  S    -6.828992  0.986600  2.261093
  S    -6.933345  4.651245  2.248401
  S    -3.615015  0.969596 -0.259782
  S    -4.040277  4.817597 -0.598590
  S    -4.502616  2.156175  3.561670
  S    -4.409596  5.648427  3.435707
