16  
    
  C     1.321646  4.614616  3.260106
  C     1.447671  7.991807  3.139818
  C     0.063935  4.168813  2.779026
  C     0.213643  7.887312  2.421648
  N     2.200252  4.874060  2.308332
  N     2.492257  7.930755  2.372962
  N    -0.077231  3.957075  1.445599
  N     0.380267  7.572853  1.139552
  N    -0.155515  4.319911  5.396253
  N    -0.342007  8.053195  4.934315
  S    -1.096231  4.080072  4.110824
  S    -1.142858  8.059811  3.470030
  S     1.430907  4.296452  0.916533
  S     1.976082  7.664992  0.790548
  S     1.444621  4.652693  5.033852
  S     1.318550  8.108555  4.803313
