16  
    
  C    -4.649236  0.734461  1.434791
  C    -4.755580  4.511456  1.869125
  C    -5.908248  0.665915  0.722427
  C    -6.007276  4.254254  1.157072
  N    -3.580159  1.007494  0.641328
  N    -3.706942  4.757319  1.079611
  N    -5.801222  0.697818 -0.597056
  N    -5.882636  4.250770 -0.180997
  N    -6.521003  0.854494  3.153276
  N    -6.595031  4.541048  3.671749
  S    -7.335438  0.640892  1.778413
  S    -7.343139  4.192239  2.224098
  S    -4.226821  0.994872 -0.876814
  S    -4.271306  4.534136 -0.440256
  S    -4.871643  1.100779  3.103196
  S    -4.898308  4.787803  3.587685
