16  
    
  C     3.200688  5.182588  3.460968
  C     3.573471  9.251558  3.405879
  C     1.989222  4.780012  2.825785
  C     2.422410  8.625603  2.763616
  N     4.188608  5.552591  2.703476
  N     4.569742  9.432489  2.551230
  N     2.153332  4.534606  1.516603
  N     2.508535  8.411473  1.427016
  N     1.456675  5.108635  5.313186
  N     2.040721  8.791527  5.444328
  S     0.730658  4.428053  3.990894
  S     1.209257  8.284789  4.079649
  S     3.642076  5.166384  1.182035
  S     4.110533  8.889291  1.027303
  S     3.115194  5.375367  5.113686
  S     3.553755  9.464003  5.107027
