16  
    
  C    -2.539793  2.106084  2.010041
  C    -2.478538  5.815190  2.088752
  C    -3.790944  1.942595  1.352187
  C    -3.702937  5.382737  1.416599
  N    -1.516011  2.159391  1.161479
  N    -1.383206  5.725096  1.362829
  N    -3.751207  1.572657  0.054292
  N    -3.476003  5.084626  0.160516
  N    -4.217804  2.244924  3.903238
  N    -4.432261  5.845328  3.758873
  S    -5.103677  2.075443  2.548813
  S    -5.149840  5.289509  2.388981
  S    -2.118529  1.705643 -0.328620
  S    -1.822983  5.403555 -0.146276
  S    -2.596971  2.330630  3.746132
  S    -2.763062  6.002772  3.787312
