16  
    
  C     1.939553  4.175244  3.369816
  C     1.717786  7.808416  3.035581
  C     0.622786  4.197908  2.683959
  C     0.426893  7.609058  2.397359
  N     2.965511  4.369244  2.506155
  N     2.734778  7.956100  2.220834
  N     0.737646  4.159813  1.311983
  N     0.476190  7.647144  1.076586
  N     0.219851  3.947647  5.210651
  N     0.065147  7.363657  4.915448
  S    -0.664323  3.739566  3.818184
  S    -0.783416  7.117814  3.539841
  S     2.321478  4.377355  1.004520
  S     2.077003  7.887864  0.691796
  S     1.795390  4.269975  5.117072
  S     1.688078  7.681654  4.768563
