16  
    
  C    -3.771802  1.976166  1.952279
  C    -3.493709  5.370578  1.947211
  C    -4.661284  1.005150  1.307419
  C    -4.752200  4.901927  1.484627
  N    -2.720451  2.330899  1.233766
  N    -2.491630  5.403999  1.082011
  N    -4.379475  0.769737  0.028815
  N    -4.692167  4.465541  0.246302
  N    -5.624772  1.440625  3.668843
  N    -5.063400  5.285073  3.944978
  S    -6.012050  0.608316  2.352687
  S    -6.064375  4.914586  2.640754
  S    -2.983649  1.620671 -0.285996
  S    -3.130194  4.812946 -0.268129
  S    -4.207720  2.233313  3.604846
  S    -3.550859  5.756598  3.619030
