16  
    
  C     3.004104  5.295055  3.857770
  C     2.595716  8.458772  3.166928
  C     1.692252  5.167018  3.254144
  C     1.302515  8.196297  2.601965
  N     3.971490  5.148999  2.950454
  N     3.612733  8.504549  2.319750
  N     1.677533  4.615481  2.047554
  N     1.332697  8.087309  1.262279
  N     1.271686  5.598526  5.775248
  N     1.055837  8.929260  5.063371
  S     0.420752  5.373363  4.412703
  S     0.142398  8.246278  3.864491
  S     3.263059  4.720925  1.471906
  S     2.992072  8.229334  0.815909
  S     2.894711  5.799798  5.575114
  S     2.660158  9.058049  4.740195
