16  
    
  C     1.887023  4.233428  3.301971
  C     1.798990  7.835746  3.046276
  C     0.608409  4.018377  2.702616
  C     0.476675  7.571753  2.443879
  N     2.942132  4.352422  2.537698
  N     2.823278  7.977659  2.158006
  N     0.679846  4.229476  1.428536
  N     0.444401  7.606632  1.105316
  N     0.189637  3.932053  5.219718
  N     0.089837  7.322512  4.945826
  S    -0.719529  3.802496  3.810451
  S    -0.771195  7.094946  3.527818
  S     2.349321  4.301477  0.962190
  S     2.055570  7.941216  0.694084
  S     1.817089  4.248643  5.054005
  S     1.705225  7.708870  4.787904
