16  
    
  C     2.961475  5.174428  3.648182
  C     2.854674  8.903851  3.312746
  C     1.642506  4.976535  3.115778
  C     1.608580  8.447093  2.740322
  N     3.910183  4.823921  2.759081
  N     3.861450  8.843033  2.421028
  N     1.567360  4.844964  1.774153
  N     1.640517  7.951206  1.472336
  N     1.274502  5.547359  5.704896
  N     1.104797  8.798706  5.216236
  S     0.405482  5.351283  4.292084
  S     0.301763  8.520775  3.831413
  S     3.179419  4.720421  1.304313
  S     3.271710  8.121615  1.066213
  S     2.930072  5.408339  5.412176
  S     2.720766  9.030326  5.026924
