16  
    
  C    -4.406837  1.458157  1.944632
  C    -4.660881  4.763677  1.633042
  C    -5.586512  0.810443  1.337214
  C    -5.753458  4.360690  0.792940
  N    -3.482022  1.813608  1.043069
  N    -3.607388  5.239412  0.989765
  N    -5.589755  0.762808  0.003384
  N    -5.498986  4.474909 -0.530992
  N    -6.072999  0.852356  3.867412
  N    -6.413852  3.860010  3.325912
  S    -6.832393  0.248165  2.457252
  S    -7.132635  3.750399  1.790840
  S    -4.040879  1.384387 -0.465583
  S    -3.938622  5.040552 -0.596016
  S    -4.464462  1.264195  3.631639
  S    -4.914996  4.691371  3.395065
