16  
    
  C    -0.407587  3.544368  2.870093
  C    -0.681763  6.861939  2.678340
  C    -1.605627  3.063699  2.193834
  C    -1.785990  6.388843  1.984489
  N     0.621326  3.703715  2.039347
  N     0.343458  7.144988  1.904465
  N    -1.389149  2.699659  0.923555
  N    -1.668905  6.207167  0.693078
  N    -2.113198  3.185970  4.712043
  N    -2.595724  6.611998  4.297261
  S    -2.932055  2.925017  3.289126
  S    -3.211065  6.047440  2.838486
  S     0.150067  3.245210  0.543430
  S    -0.084718  6.634379  0.393935
  S    -0.551808  3.758869  4.579678
  S    -1.000024  7.068820  4.327936
