16  
    
  C     2.077667  4.254590  3.339348
  C     1.710029  7.715530  3.065026
  C     0.727971  4.023650  2.722141
  C     0.422002  7.506893  2.400352
  N     3.017050  4.823894  2.516427
  N     2.719631  7.898227  2.241779
  N     0.864502  4.083531  1.374897
  N     0.558022  7.487381  1.093983
  N     0.251937  3.993470  5.168638
  N    -0.099867  7.481761  4.865780
  S    -0.603620  3.683326  3.829150
  S    -0.940237  7.312923  3.453169
  S     2.359070  4.559679  1.018777
  S     2.095086  7.809754  0.673381
  S     1.874735  4.370452  5.099865
  S     1.520810  7.633437  4.771347
