16  
    
  C     2.043813  4.550315  3.293486
  C     1.547761  7.910080  3.086157
  C     0.809501  4.095519  2.605198
  C     0.368205  7.579058  2.333592
  N     3.013959  4.746182  2.443733
  N     2.639358  7.946464  2.327850
  N     0.899202  3.949613  1.281504
  N     0.574281  7.489003  1.007497
  N     0.361386  4.115600  5.168562
  N    -0.272940  7.606737  4.807108
  S    -0.393009  3.673979  3.817493
  S    -0.971645  7.191736  3.362521
  S     2.403361  4.440725  0.954355
  S     2.164536  7.732792  0.718583
  S     1.869018  4.839745  5.000856
  S     1.335111  7.924832  4.779949
