16  
    
  C    -4.011257  1.591585  1.682382
  C    -3.999490  5.235196  1.911725
  C    -5.267634  1.238493  1.043403
  C    -5.200688  5.035330  1.212859
  N    -2.935523  1.492638  0.931864
  N    -2.955715  5.500917  1.143674
  N    -5.180302  1.120836 -0.272500
  N    -5.146249  5.188515 -0.124337
  N    -5.719705  1.591100  3.523412
  N    -5.908307  4.965654  3.700144
  S    -6.554499  1.354853  2.094306
  S    -6.668213  4.845002  2.194251
  S    -3.579713  1.181969 -0.624442
  S    -3.559354  5.631341 -0.383969
  S    -4.049184  1.663453  3.425193
  S    -4.211188  5.141099  3.659354
