16  
    
  C     0.205995  3.506723  2.318720
  C     0.257371  7.528471  2.889356
  C    -1.133546  3.340093  1.719963
  C    -0.849269  6.783736  2.253285
  N     1.190342  3.587578  1.422810
  N     1.276832  7.751047  2.040580
  N    -1.075950  3.195526  0.416604
  N    -0.644097  6.361179  1.002829
  N    -1.594721  3.329881  4.245837
  N    -1.521025  7.187674  4.651742
  S    -2.407803  3.002680  2.820733
  S    -2.207822  6.599661  3.263360
  S     0.433698  3.538820 -0.070654
  S     0.817090  6.945023  0.671620
  S     0.083607  3.559318  4.058183
  S     0.001830  7.914909  4.551075
