16  
    
  C    -4.226615  1.475339  1.861899
  C    -4.113347  5.037546  1.947229
  C    -5.454631  1.186474  1.120448
  C    -5.383409  4.687317  1.420167
  N    -3.130491  1.415993  1.109217
  N    -3.050101  5.034509  1.141197
  N    -5.238626  1.090476 -0.216110
  N    -5.335612  4.439983  0.099834
  N    -6.066908  1.544541  3.628765
  N    -5.839184  5.378834  3.947500
  S    -6.856680  1.223532  2.160034
  S    -6.767353  5.027533  2.525842
  S    -3.639698  1.169209 -0.433843
  S    -3.764194  4.716966 -0.390206
  S    -4.377781  1.480370  3.580550
  S    -4.175772  5.471424  3.679318
