16  
    
  C    -0.372275  3.357837  2.681964
  C    -0.218662  7.141184  2.514720
  C    -1.420784  2.614747  2.064499
  C    -1.400185  6.639663  1.773150
  N     0.664850  3.475580  1.882437
  N     0.858180  7.124811  1.720517
  N    -1.169974  2.173453  0.856069
  N    -1.191281  6.367210  0.490742
  N    -2.271997  3.098324  4.491613
  N    -2.248235  6.886012  4.221502
  S    -2.768779  2.288087  3.097925
  S    -2.843597  6.538580  2.733717
  S     0.334443  2.789404  0.432686
  S     0.434446  6.688059  0.167698
  S    -0.684679  3.779331  4.359911
  S    -0.681358  7.355944  4.201796
