16  
    
  C    -5.369482  1.086752  1.529546
  C    -5.179883  4.493655  1.538744
  C    -6.635487  0.901004  0.866242
  C    -6.498536  4.177795  1.041704
  N    -4.340439  1.142286  0.676680
  N    -4.269594  4.635343  0.571332
  N    -6.569944  0.630122 -0.435588
  N    -6.538009  3.954635 -0.262307
  N    -7.161962  1.093855  3.444556
  N    -6.857258  4.684190  3.596478
  S    -7.976322  0.917104  1.986781
  S    -7.739559  4.190439  2.275802
  S    -4.989553  0.846903 -0.842045
  S    -5.009391  4.242538 -0.860815
  S    -5.453620  1.364476  3.273340
  S    -5.255852  4.930789  3.222939
