16  
    
  C    -2.383242  2.062334  2.028536
  C    -2.489421  5.698459  2.104589
  C    -3.742572  1.950732  1.443580
  C    -3.658652  5.297585  1.421704
  N    -1.390975  1.962778  1.128426
  N    -1.447659  5.771253  1.239491
  N    -3.729082  1.621627  0.153495
  N    -3.602152  5.182087  0.093085
  N    -4.079311  2.203381  3.908281
  N    -4.384385  5.470836  3.880020
  S    -5.025348  2.110096  2.554206
  S    -5.134853  5.279941  2.443513
  S    -2.138054  1.580320 -0.306136
  S    -1.927307  5.385765 -0.264154
  S    -2.430100  2.366265  3.759628
  S    -2.803951  5.954483  3.807197
