16  
    
  C    -0.251101  3.288819  2.625082
  C    -0.068155  6.930046  2.455594
  C    -1.355903  2.549017  1.983118
  C    -1.285778  6.588224  1.786743
  N     0.698474  3.637587  1.772864
  N     0.908777  7.267671  1.617036
  N    -1.154467  2.364078  0.670801
  N    -1.175171  6.663404  0.468453
  N    -1.908836  2.862640  4.492399
  N    -1.868150  6.472254  4.277887
  S    -2.649151  2.255817  3.093277
  S    -2.539896  6.021544  2.831375
  S     0.385477  2.955280  0.311687
  S     0.368125  7.128138  0.078903
  S    -0.383091  3.488627  4.334374
  S    -0.306393  6.932141  4.191082
