16  
    
  C    -4.289044  1.623140  1.978297
  C    -4.629215  5.229960  1.677843
  C    -5.362111  0.934432  1.388570
  C    -5.813870  4.727804  1.104062
  N    -3.179681  1.751900  1.244819
  N    -3.613013  5.378400  0.828940
  N    -5.159647  0.684083  0.070809
  N    -5.751701  4.510489 -0.204339
  N    -6.239824  1.587116  3.762541
  N    -6.298702  5.190399  3.706180
  S    -6.850944  0.978292  2.354148
  S    -7.089846  4.637315  2.329082
  S    -3.633925  1.148611 -0.305797
  S    -4.119797  4.835625 -0.653632
  S    -4.622804  1.953619  3.635853
  S    -4.635869  5.484427  3.409583
