16  
    
  C     3.130773  5.203565  3.408929
  C     3.198894  8.841128  3.709973
  C     1.906719  4.724412  2.842010
  C     1.818539  8.648176  3.330251
  N     4.138919  5.163477  2.542552
  N     4.168913  8.562936  2.856028
  N     1.879013  4.620800  1.512550
  N     1.717284  8.204024  2.071707
  N     1.375285  5.025317  5.260217
  N     1.700287  9.361259  5.719768
  S     0.602379  4.541555  3.885076
  S     0.645607  8.934987  4.528211
  S     3.485400  4.666510  1.128320
  S     3.312800  8.256333  1.448225
  S     3.001263  5.217872  5.169260
  S     3.304759  9.416160  5.344138
