16  
    
  C    -2.707447  2.565566  2.315929
  C    -2.722575  6.437196  1.951755
  C    -3.777319  1.843579  1.712034
  C    -3.796731  5.791941  1.239651
  N    -1.775368  2.889638  1.418919
  N    -1.660943  6.788067  1.224591
  N    -3.739501  1.710512  0.382105
  N    -3.526558  5.577146  0.008093
  N    -4.395332  2.201265  4.225705
  N    -4.525664  5.659577  3.706530
  S    -5.081852  1.558213  2.807432
  S    -5.198895  5.322415  2.197599
  S    -2.292368  2.398691 -0.043687
  S    -2.037985  6.129314 -0.334563
  S    -2.873951  2.871965  4.019463
  S    -2.965292  6.365165  3.677902
