16  
    
  C    -3.486237  1.764678  1.745220
  C    -3.631232  5.708728  1.810406
  C    -4.539742  0.927922  1.226821
  C    -4.875941  5.379430  1.056645
  N    -2.500452  2.100198  0.928959
  N    -2.605530  5.885871  1.024130
  N    -4.350404  0.682880 -0.050892
  N    -4.698199  5.238761 -0.262962
  N    -5.292884  1.523607  3.616351
  N    -5.347107  5.123505  3.548731
  S    -5.925885  0.753473  2.311521
  S    -6.178664  4.936427  2.108944
  S    -2.927168  1.410451 -0.534006
  S    -3.166650  5.660793 -0.587251
  S    -3.786244  2.124247  3.477277
  S    -3.780148  5.715170  3.544343
