16  
    
  C     0.096164  3.534582  2.409199
  C     0.293186  7.559653  2.805534
  C    -1.239159  3.316155  1.801321
  C    -0.819783  6.845117  2.204884
  N     1.056346  3.708509  1.478477
  N     1.332239  7.621767  1.996511
  N    -1.155460  3.042873  0.478213
  N    -0.615868  6.507975  0.909110
  N    -1.670124  3.511978  4.286261
  N    -1.421761  7.295938  4.699176
  S    -2.523462  3.040662  2.934172
  S    -2.140317  6.601806  3.367401
  S     0.426558  3.367796  0.004921
  S     0.958079  7.084447  0.526096
  S    -0.078148  3.888433  4.035184
  S     0.074927  7.948121  4.482826
