16  
    
  C    -0.352043  3.381498  2.489787
  C    -0.316978  6.885682  2.253116
  C    -1.640938  2.962922  1.974242
  C    -1.546524  6.584886  1.723347
  N     0.610786  3.486639  1.589079
  N     0.649321  7.196454  1.399572
  N    -1.609438  2.663447  0.702088
  N    -1.552286  6.506261  0.407824
  N    -1.995628  3.158691  4.451532
  N    -1.862135  6.692303  4.261904
  S    -2.911463  2.970425  3.130555
  S    -2.795723  6.461753  2.907108
  S    -0.094938  3.104044  0.128145
  S     0.029393  6.839659 -0.044422
  S    -0.377457  3.384840  4.286714
  S    -0.268590  7.146358  3.972784
