16  
    
  C    -4.259183  1.536015  2.038908
  C    -4.609661  5.205525  1.695614
  C    -5.420411  0.934713  1.329984
  C    -5.880711  4.730629  1.086648
  N    -3.232814  1.753798  1.217702
  N    -3.629326  5.421889  0.847086
  N    -5.175988  0.648818  0.072045
  N    -5.771288  4.439418 -0.220361
  N    -6.181080  1.532484  3.702208
  N    -6.274546  5.084102  3.676204
  S    -6.875379  0.931328  2.346725
  S    -7.169348  4.583417  2.283990
  S    -3.694897  1.208155 -0.270964
  S    -4.170738  4.826853 -0.605382
  S    -4.572421  1.969277  3.701943
  S    -4.618209  5.472280  3.399744
