16  
    
  C    -3.647060  1.859376  1.872538
  C    -3.599261  5.556203  1.802761
  C    -4.680439  1.027055  1.242811
  C    -4.829811  5.265744  1.150894
  N    -2.716844  2.225880  0.975209
  N    -2.573108  5.847410  0.988822
  N    -4.361402  0.648203 -0.001333
  N    -4.767435  5.241687 -0.169652
  N    -5.379037  1.493156  3.666941
  N    -5.349135  5.326118  3.727581
  S    -5.935681  0.613088  2.324436
  S    -6.115542  4.964243  2.286179
  S    -2.991967  1.474176 -0.421264
  S    -3.205146  5.518546 -0.593571
  S    -3.868773  2.242610  3.531377
  S    -3.782776  5.721405  3.514376
