16  
    
  C    -3.634870  1.829142  1.861008
  C    -3.577186  5.587877  1.812839
  C    -4.689027  1.025029  1.252894
  C    -4.821477  5.271274  1.157828
  N    -2.708093  2.211393  0.966695
  N    -2.575224  5.860325  0.973526
  N    -4.357231  0.640472  0.007876
  N    -4.769396  5.265393 -0.161886
  N    -5.379132  1.497900  3.662697
  N    -5.349607  5.305676  3.734617
  S    -5.920717  0.628943  2.307572
  S    -6.122682  4.961482  2.264409
  S    -2.996057  1.474277 -0.410361
  S    -3.199458  5.531615 -0.594035
  S    -3.850745  2.232191  3.515423
  S    -3.794440  5.716290  3.499117
