16  
    
  C    -3.547736  1.562949  2.090663
  C    -3.248125  5.335953  2.073061
  C    -4.759425  1.162610  1.338215
  C    -4.528796  4.975305  1.503154
  N    -2.410920  1.715328  1.398255
  N    -2.226706  5.395300  1.208558
  N    -4.443227  0.757241  0.102812
  N    -4.517294  4.790100  0.212277
  N    -5.469781  1.413543  3.897558
  N    -5.013000  5.386592  4.016073
  S    -6.127122  1.045861  2.377455
  S    -5.847955  4.946016  2.624676
  S    -2.831417  1.181673 -0.173043
  S    -2.973351  4.995535 -0.241889
  S    -3.839219  1.922329  3.798694
  S    -3.397959  5.687105  3.702003
