16  
    
  C     2.977263  5.347268  3.776483
  C     2.655985  8.543874  3.144532
  C     1.672229  5.089501  3.238845
  C     1.375808  8.266426  2.595185
  N     3.971673  5.179159  2.917111
  N     3.712135  8.474234  2.308976
  N     1.627881  4.749381  1.953681
  N     1.441150  7.996472  1.286948
  N     1.314129  5.494989  5.760109
  N     1.029843  9.008427  5.141901
  S     0.409936  5.432123  4.377745
  S     0.168396  8.318908  3.901222
  S     3.199137  4.631504  1.504102
  S     3.018310  8.260296  0.867764
  S     2.956646  5.686745  5.502063
  S     2.684514  9.092552  4.762057
