16  
    
  C     2.917590  5.241836  3.387149
  C     2.855088  8.879374  3.366404
  C     1.784407  4.593608  2.750537
  C     1.706044  8.363095  2.699755
  N     3.872813  5.597342  2.525639
  N     3.902156  9.134410  2.615473
  N     1.851139  4.609042  1.422650
  N     1.847264  8.268999  1.384950
  N     1.145403  4.954743  5.280052
  N     1.169659  8.268180  5.255167
  S     0.437428  4.308763  3.938812
  S     0.447680  7.735219  3.811668
  S     3.374035  5.148102  0.987992
  S     3.409449  8.948199  1.030375
  S     2.716939  5.408012  5.100183
  S     2.662776  9.076773  5.020524
