16  
    
  C     0.611593  3.659634  3.179091
  C     1.086571  7.569058  2.718528
  C    -0.509579  3.329437  2.394977
  C    -0.060484  7.060148  2.011210
  N     1.616262  4.163067  2.452710
  N     2.201372  7.719784  1.999851
  N    -0.258342  3.238288  1.067349
  N     0.114515  6.849550  0.689614
  N    -1.202973  3.082981  4.855185
  N    -0.684727  7.145639  4.564487
  S    -1.819892  2.813752  3.298212
  S    -1.376170  6.670461  3.112158
  S     1.271245  3.859406  0.870325
  S     1.732358  7.301663  0.498844
  S     0.302599  3.694993  4.959405
  S     0.835035  7.804124  4.433782
