16  
    
  C     2.918219  5.301154  3.623841
  C     2.899308  8.745364  3.479696
  C     1.708878  5.003601  2.887203
  C     1.768279  8.333719  2.670596
  N     3.992440  5.349052  2.857794
  N     3.997652  8.995674  2.769572
  N     1.864366  4.809331  1.578062
  N     1.993926  8.156563  1.361957
  N     1.159924  4.707236  5.353688
  N     1.013418  8.701036  5.236143
  S     0.339965  4.853774  3.937194
  S     0.378619  8.092332  3.767738
  S     3.496413  5.156947  1.304865
  S     3.683364  8.512456  1.261809
  S     2.686363  5.308953  5.362087
  S     2.678785  8.818173  5.143998
