16  
    
  C    -5.412902  1.055346  1.550365
  C    -5.132691  4.607210  1.519871
  C    -6.648972  0.704505  0.926791
  C    -6.448642  4.193009  1.024887
  N    -4.399145  1.089861  0.711926
  N    -4.213839  4.588859  0.576859
  N    -6.598482  0.678087 -0.397068
  N    -6.495979  3.975414 -0.265376
  N    -7.127907  1.072559  3.467547
  N    -6.799776  4.537542  3.529739
  S    -7.954374  0.971142  2.023299
  S    -7.738025  4.285990  2.163806
  S    -4.992666  0.900183 -0.811541
  S    -4.965162  4.201405 -0.874053
  S    -5.532543  1.368202  3.294645
  S    -5.241440  5.057579  3.218666
