16  
    
  C    -1.299155  3.342260  2.084777
  C    -0.997519  6.818204  2.587906
  C    -2.390703  2.620428  1.523000
  C    -2.313253  6.628548  1.960420
  N    -0.343277  3.628764  1.206631
  N     0.010429  7.206822  1.768388
  N    -2.410684  2.711204  0.196341
  N    -2.238220  6.669993  0.608148
  N    -2.882885  2.880523  4.075784
  N    -2.750810  6.753695  4.494255
  S    -3.603484  2.220051  2.705776
  S    -3.642394  6.706071  3.102951
  S    -0.938575  3.260234 -0.306080
  S    -0.632011  7.026439  0.230318
  S    -1.410787  3.664461  3.790994
  S    -1.143033  6.963376  4.321609
