16  
    
  C    -0.738956  3.050527  2.610007
  C    -1.329627  6.610935  2.515817
  C    -1.956648  2.589696  1.994468
  C    -2.420873  5.957004  1.899624
  N     0.312048  3.069533  1.790352
  N    -0.285756  6.871463  1.761391
  N    -1.795732  2.287901  0.736787
  N    -2.249267  5.761290  0.627141
  N    -2.542725  2.985879  4.438915
  N    -3.018661  5.968076  4.293375
  S    -3.323782  2.575984  3.043713
  S    -3.777271  5.575279  2.814688
  S    -0.264339  2.685114  0.305435
  S    -0.765390  6.438765  0.243249
  S    -0.926332  3.279953  4.366723
  S    -1.448720  6.569750  4.243150
