16  
    
  C    -1.777213  2.541944  2.470182
  C    -1.773948  6.059377  2.410045
  C    -3.030408  2.339830  1.735839
  C    -2.897225  5.548191  1.685309
  N    -0.758796  2.581912  1.634493
  N    -0.676143  6.261211  1.634037
  N    -2.945305  2.152392  0.406826
  N    -2.617166  5.377777  0.354716
  N    -3.607992  2.371132  4.271926
  N    -3.651791  5.771150  4.162728
  S    -4.365741  2.069719  2.819849
  S    -4.298656  5.356128  2.734391
  S    -1.303630  2.392676  0.055540
  S    -1.099357  5.932522  0.078024
  S    -1.961440  2.582679  4.180074
  S    -2.034625  5.998652  4.112743
