16  
    
  C    -2.764790  2.682860  2.380015
  C    -2.671894  5.871504  1.993936
  C    -3.799482  1.889746  1.715489
  C    -3.836122  5.519586  1.308454
  N    -1.808094  3.020775  1.519397
  N    -1.633432  6.158715  1.199887
  N    -3.741355  1.823130  0.368099
  N    -3.707829  5.480496 -0.062092
  N    -4.381425  2.060138  4.256995
  N    -4.512201  5.429375  3.804878
  S    -4.987824  1.364704  2.840541
  S    -5.222502  5.080693  2.310629
  S    -2.247801  2.492226  0.031200
  S    -2.126567  6.093086 -0.354140
  S    -2.840909  2.720945  4.087499
  S    -2.994463  6.086168  3.672225
