16  
    
  C     2.466395  4.891606  3.496897
  C     2.483864  8.626812  3.430444
  C     1.225959  4.542002  2.762008
  C     1.254442  8.050619  2.914853
  N     3.555967  5.159166  2.769952
  N     3.452309  8.830313  2.507030
  N     1.504610  4.260938  1.492518
  N     1.283104  7.809005  1.622936
  N     0.736095  4.479497  5.345294
  N     0.733371  8.519680  5.401831
  S    -0.051692  4.022208  3.948574
  S     0.053184  7.753838  4.061481
  S     3.124910  4.657582  1.211354
  S     2.774274  8.307014  1.034122
  S     2.278069  5.125327  5.225232
  S     2.363054  9.098008  5.159278
