16  
    
  C    -4.873171  1.282279  1.463375
  C    -4.742457  4.830661  1.926444
  C    -5.973924  0.658256  0.826959
  C    -5.909938  4.259275  1.297786
  N    -3.801005  1.399105  0.718164
  N    -3.703072  5.015825  1.133674
  N    -5.766757  0.439851 -0.484591
  N    -5.693893  3.948331  0.010930
  N    -6.599296  0.752127  3.361633
  N    -6.399790  4.369494  3.788424
  S    -7.238309  0.287906  1.908155
  S    -7.205725  3.985953  2.436475
  S    -4.240459  0.848889 -0.744045
  S    -4.104466  4.336928 -0.288472
  S    -4.962936  1.264725  3.227613
  S    -4.877912  5.026791  3.601737
