16  
    
  C     2.469381  4.890360  3.496067
  C     2.486905  8.633563  3.432210
  C     1.229933  4.534906  2.762982
  C     1.255297  8.052195  2.917657
  N     3.553668  5.168230  2.764365
  N     3.456167  8.823843  2.503138
  N     1.505080  4.255804  1.489439
  N     1.284944  7.801211  1.618618
  N     0.737801  4.478843  5.362780
  N     0.722711  8.521468  5.398581
  S    -0.049661  4.030074  3.951857
  S     0.054142  7.747319  4.056884
  S     3.122879  4.656045  1.212595
  S     2.769771  8.308395  1.036484
  S     2.279279  5.128121  5.224980
  S     2.355667  9.102409  5.160291
