16  
    
  C    -1.544561  3.136176  1.953103
  C    -1.008002  7.104834  2.401338
  C    -2.598684  2.362533  1.346353
  C    -2.292534  6.742010  1.826761
  N    -0.548626  3.534037  1.188490
  N    -0.064834  7.038702  1.507265
  N    -2.389103  2.108992  0.065257
  N    -2.252528  6.425105  0.557775
  N    -3.241853  2.658209  3.829127
  N    -2.600886  6.609332  4.278113
  S    -3.887454  1.980780  2.431140
  S    -3.592949  6.687336  2.957453
  S    -0.947953  2.948184 -0.321221
  S    -0.745894  6.745727  0.020743
  S    -1.764105  3.429148  3.714809
  S    -1.018423  7.113174  4.139018
