16  
    
  C    -1.491789  3.448943  2.019188
  C    -0.944716  6.866265  2.541657
  C    -2.518279  2.636325  1.451562
  C    -2.244441  6.827987  1.926376
  N    -0.474661  3.732202  1.181025
  N     0.069858  6.893931  1.661033
  N    -2.361398  2.504945  0.123349
  N    -2.278042  6.738332  0.574046
  N    -3.047989  2.798131  3.969461
  N    -2.726282  6.830421  4.449205
  S    -3.734522  2.211892  2.544989
  S    -3.599955  6.601634  3.035697
  S    -0.914418  3.147861 -0.309604
  S    -0.660808  6.977548  0.133582
  S    -1.545925  3.563217  3.775834
  S    -1.075932  7.042277  4.310940
