16  
    
  C    -1.552776  2.844836  2.016982
  C    -1.161800  6.782821  2.205621
  C    -2.589423  1.997618  1.394884
  C    -2.469786  6.425631  1.671939
  N    -0.504733  3.163122  1.263873
  N    -0.177120  6.817510  1.296073
  N    -2.350435  1.815781  0.099981
  N    -2.450323  6.242166  0.349872
  N    -3.361131  2.390480  3.867218
  N    -2.850172  6.866777  4.178867
  S    -3.878864  1.640773  2.468848
  S    -3.682542  6.314379  2.884670
  S    -0.827140  2.457637 -0.193745
  S    -0.898439  6.456804 -0.195773
  S    -1.874545  3.144799  3.729138
  S    -1.269712  7.113947  3.895653
