16  
    
  C    -4.254220  1.727100  1.893501
  C    -4.304149  5.208898  1.754618
  C    -5.406088  1.141092  1.283311
  C    -5.581728  4.690866  1.185827
  N    -3.175637  1.694093  1.135164
  N    -3.340896  5.254257  0.857159
  N    -5.284524  0.682816  0.062897
  N    -5.525804  4.533784 -0.134542
  N    -6.056636  1.463066  3.768153
  N    -5.971622  5.081181  3.664872
  S    -6.812460  0.990975  2.308652
  S    -6.869772  4.659336  2.304821
  S    -3.617667  0.967736 -0.263291
  S    -3.976565  4.786072 -0.589635
  S    -4.524451  2.165253  3.510647
  S    -4.411921  5.647163  3.432530
