16  
    
  C    -1.754187  2.349939  1.947188
  C    -1.698215  6.292654  2.153368
  C    -2.949426  2.073298  1.264954
  C    -2.891881  5.821570  1.546563
  N    -0.719108  2.474986  1.129680
  N    -0.642210  6.383299  1.380607
  N    -2.861169  1.809896 -0.047036
  N    -2.761107  5.672541  0.217825
  N    -3.552318  2.186437  3.798324
  N    -3.628960  6.202624  3.854824
  S    -4.327457  1.909449  2.311290
  S    -4.255041  5.578234  2.445898
  S    -1.263383  2.196491 -0.395632
  S    -1.192056  5.916180 -0.185475
  S    -1.877183  2.366475  3.691822
  S    -2.026415  6.740088  3.775544
