16  
    
  C    -3.577839  1.629725  2.068427
  C    -3.262587  5.363638  2.062984
  C    -4.690669  1.111503  1.377051
  C    -4.559812  4.958638  1.540800
  N    -2.480360  1.786129  1.350531
  N    -2.251397  5.329145  1.214555
  N    -4.425713  0.782065  0.116216
  N    -4.532697  4.717762  0.222422
  N    -5.505796  1.442830  3.856518
  N    -5.055021  5.362860  3.977291
  S    -6.117776  0.992787  2.388874
  S    -5.876189  4.939625  2.640309
  S    -2.815899  1.231498 -0.177042
  S    -3.026134  4.977690 -0.274691
  S    -3.943354  1.927260  3.743294
  S    -3.399669  5.709180  3.734319
