16  
    
  C     2.039675  4.366637  3.081454
  C     2.070972  7.908929  3.191025
  C     0.781319  4.093759  2.371804
  C     0.905897  7.544358  2.443122
  N     3.026115  4.421380  2.227472
  N     3.156677  8.057990  2.431021
  N     0.889242  3.609942  1.125783
  N     1.026733  7.425821  1.096614
  N     0.296343  4.357457  4.896966
  N     0.078805  8.016678  4.850784
  S    -0.518998  3.927655  3.534135
  S    -0.541515  7.410591  3.441361
  S     2.545728  3.989305  0.674087
  S     2.687742  7.718883  0.878277
  S     1.920151  4.811353  4.712715
  S     1.699719  8.296304  4.875818
