16  
    
  C    -0.202270  3.291561  2.621690
  C    -0.076904  6.962534  2.423680
  C    -1.425480  2.716843  2.012680
  C    -1.219150  6.463662  1.711771
  N     0.836304  3.412777  1.801935
  N     0.939575  7.294135  1.645944
  N    -1.275590  2.389794  0.722344
  N    -1.209076  6.544111  0.380516
  N    -1.953619  2.856273  4.532000
  N    -1.915711  6.391395  4.241863
  S    -2.653990  2.236597  3.174152
  S    -2.569634  5.996268  2.763008
  S     0.225950  2.942327  0.289883
  S     0.357292  7.027912  0.016084
  S    -0.409424  3.473133  4.297604
  S    -0.333093  7.009575  4.192883
