16  
    
  C    -1.425333  3.424724  2.022761
  C    -0.930358  6.851017  2.550846
  C    -2.549641  2.693945  1.450428
  C    -2.261475  6.776052  1.899784
  N    -0.431345  3.712090  1.191325
  N     0.080733  6.906206  1.689457
  N    -2.354246  2.520495  0.145028
  N    -2.276991  6.730550  0.570922
  N    -3.016558  2.811399  3.975865
  N    -2.743052  6.851428  4.464588
  S    -3.709404  2.210294  2.573149
  S    -3.589531  6.612573  3.008183
  S    -0.925341  3.179494 -0.298443
  S    -0.693993  7.004736  0.182242
  S    -1.533167  3.583955  3.765110
  S    -1.066238  7.031636  4.327457
