16  
    
  C     2.249259  4.780846  3.246154
  C     2.367350  8.816662  3.497233
  C     1.044671  4.258579  2.591023
  C     1.135666  8.411573  2.885252
  N     3.317021  4.915403  2.447475
  N     3.413997  8.965024  2.614886
  N     1.033046  4.415512  1.250830
  N     1.124975  8.317889  1.553736
  N     0.617361  4.242766  5.089953
  N     0.511038  8.632405  5.317517
  S    -0.142023  3.858609  3.732398
  S    -0.228531  8.223536  3.900875
  S     2.644323  4.844152  0.955763
  S     2.685989  8.600973  1.110045
  S     2.213740  4.733367  4.979085
  S     2.072987  9.068794  5.251950
