16  
    
  C    -2.630411  2.497092  2.351351
  C    -2.651316  5.836856  2.036459
  C    -3.789306  1.929682  1.742753
  C    -3.838406  5.374527  1.334111
  N    -1.717355  3.007925  1.516440
  N    -1.614492  6.175406  1.272916
  N    -3.631294  1.769489  0.429711
  N    -3.757335  5.534255 -0.020001
  N    -4.365158  2.021788  4.165242
  N    -4.532811  5.492703  3.739042
  S    -5.016851  1.386769  2.804000
  S    -5.221522  4.965770  2.322763
  S    -2.261361  2.563742 -0.014826
  S    -2.209480  5.878108 -0.318454
  S    -2.845393  2.624438  4.097673
  S    -2.905061  5.943918  3.744035
