16  
    
  C     3.492112  5.429726  3.588888
  C     3.522582  9.009874  3.497260
  C     2.278123  4.930814  2.957536
  C     2.391589  8.428516  2.780586
  N     4.511809  5.458527  2.759016
  N     4.456760  9.467018  2.689542
  N     2.312029  4.875184  1.626644
  N     2.607477  8.430617  1.447954
  N     1.778597  4.906161  5.410333
  N     1.830713  8.700176  5.402462
  S     0.936639  4.673159  4.012397
  S     1.093123  8.102146  4.047335
  S     3.850001  5.272983  1.238486
  S     4.068559  9.099209  1.157728
  S     3.374390  5.384744  5.301940
  S     3.312984  9.375591  5.212344
