16  
    
  C    -5.041649  1.194535  1.737112
  C    -4.908714  4.767641  1.584083
  C    -6.181181  0.483829  1.134740
  C    -6.033033  4.156197  0.905423
  N    -3.920679  1.309248  1.012852
  N    -3.832853  5.041231  0.834541
  N    -5.967920  0.250983 -0.169755
  N    -5.786210  3.931250 -0.401173
  N    -6.860235  0.948834  3.625996
  N    -6.771997  4.635643  3.363027
  S    -7.512096  0.144948  2.215943
  S    -7.458069  3.919834  1.996575
  S    -4.408958  0.736593 -0.497678
  S    -4.314821  4.626859 -0.699109
  S    -5.259262  1.490607  3.448346
  S    -5.246530  5.249248  3.248468
