16  
    
  C     2.488028  4.714048  3.501891
  C     2.531229  8.763271  3.419787
  C     1.351601  4.216802  2.779975
  C     1.288503  8.252782  2.958577
  N     3.519008  5.007570  2.704714
  N     3.459046  8.886672  2.485059
  N     1.523486  4.285996  1.466203
  N     1.315322  7.926049  1.668957
  N     0.590878  4.401191  5.161002
  N     1.007919  8.422191  5.455367
  S    -0.086647  3.932448  3.746707
  S     0.059403  8.074999  4.127427
  S     3.066143  4.776753  1.091465
  S     2.781749  8.390256  1.064429
  S     2.110194  4.919392  5.229263
  S     2.576278  8.848587  5.244104
