16  
    
  C    -5.354155 -2.575518  1.326363
  C    -5.436081  1.043550  1.291083
  C    -6.630213 -3.008136  0.757830
  C    -6.588941  0.523700  0.598409
  N    -4.388472 -2.285988  0.454881
  N    -4.468285  1.413336  0.475757
  N    -6.572519 -3.205436 -0.535956
  N    -6.372639  0.485214 -0.691633
  N    -6.876527 -3.114124  3.318530
  N    -7.163312  0.456764  3.062902
  S    -7.801124 -3.436484  2.010302
  S    -7.926872  0.122494  1.636049
  S    -5.001333 -2.834397 -1.012769
  S    -4.917265  1.129341 -1.058638
  S    -5.358765 -2.461687  3.031186
  S    -5.647197  1.206645  3.008825
