16  
    
  C    -2.943554 -1.652349  1.981740
  C    -2.566959  2.116673  2.007964
  C    -4.128966 -2.121747  1.270431
  C    -3.860376  1.810114  1.356540
  N    -1.913474 -1.298338  1.233796
  N    -1.527226  2.173862  1.190522
  N    -3.873681 -2.304712 -0.010374
  N    -3.716036  1.620524  0.024916
  N    -4.648378 -2.176067  3.785860
  N    -4.282111  2.224363  3.900299
  S    -5.463753 -2.647830  2.367373
  S    -5.147290  2.069279  2.521113
  S    -2.379485 -1.666149 -0.315134
  S    -2.125833  1.781349 -0.345158
  S    -3.114995 -1.615870  3.653850
  S    -2.610828  2.350207  3.752800
