16  
    
  C    -5.620967 -2.788606  1.589056
  C    -5.509097  0.986792  1.357682
  C    -6.820680 -3.076254  0.832236
  C    -6.686443  0.385367  0.804962
  N    -4.566722 -2.591833  0.815467
  N    -4.428367  1.172729  0.570389
  N    -6.569854 -3.286720 -0.451895
  N    -6.604984  0.216781 -0.539794
  N    -7.432739 -3.154511  3.292685
  N    -7.277973  0.625743  3.233854
  S    -8.219031 -3.241339  1.846250
  S    -8.001656  0.187246  1.867485
  S    -5.003303 -2.879201 -0.700489
  S    -5.078964  0.745828 -0.921941
  S    -5.837916 -2.564129  3.263277
  S    -5.706399  1.095043  3.105440
