16  
    
  C     0.515711 -0.109160  2.802046
  C     0.247778  3.687145  2.914474
  C    -0.743404 -0.465434  2.181968
  C    -0.902861  3.225305  2.113715
  N     1.488494  0.237749  1.948700
  N     1.271127  3.923110  2.089699
  N    -0.632333 -0.733700  0.883237
  N    -0.738081  3.024524  0.819749
  N    -1.155172 -0.504177  4.666968
  N    -1.557923  3.045811  4.629272
  S    -2.043034 -0.689121  3.270556
  S    -2.223340  2.782944  3.149768
  S     0.894536 -0.194719  0.435360
  S     0.796964  3.660790  0.530580
  S     0.447362  0.028702  4.510219
  S     0.084392  3.500578  4.633456
