16  
    
  C    -0.091921 -0.709619  2.626502
  C    -0.265663  3.177826  2.647409
  C    -1.335513 -1.088587  2.061125
  C    -1.556733  2.715302  2.094858
  N     0.878573 -0.580325  1.711240
  N     0.615348  3.480020  1.699986
  N    -1.337941 -1.553569  0.778071
  N    -1.465429  2.485268  0.802316
  N    -1.832338 -0.682941  4.551129
  N    -1.964290  2.869841  4.558801
  S    -2.639728 -1.193967  3.196109
  S    -2.816987  2.524113  3.200596
  S     0.248179 -1.178986  0.283078
  S     0.042759  2.900383  0.274566
  S    -0.162470 -0.300735  4.370007
  S    -0.407983  3.354489  4.412779
