16  
    
  C    -5.400323 -2.774086  1.543198
  C    -5.530569  1.070319  1.347493
  C    -6.677355 -2.999432  0.860146
  C    -6.657491  0.440023  0.638791
  N    -4.370405 -2.709972  0.703168
  N    -4.471800  1.317730  0.571592
  N    -6.503940 -3.220723 -0.448795
  N    -6.582597  0.366793 -0.734504
  N    -7.173366 -3.212239  3.389769
  N    -7.238435  0.516251  3.167235
  S    -7.994015 -3.522815  1.941828
  S    -7.981996  0.082610  1.780791
  S    -4.896770 -3.021059 -0.830945
  S    -4.979522  0.904564 -1.009668
  S    -5.619652 -2.565113  3.313886
  S    -5.722682  1.194774  3.096157
