16  
    
  C    -0.132827 -0.705024  2.668744
  C    -0.322697  3.284942  2.636675
  C    -1.434605 -1.074326  2.055077
  C    -1.482896  2.684068  2.099360
  N     0.834569 -0.606055  1.747041
  N     0.681187  3.421943  1.754913
  N    -1.381266 -1.502640  0.801333
  N    -1.464812  2.474149  0.790395
  N    -1.826747 -0.670206  4.570479
  N    -2.016518  2.853026  4.569365
  S    -2.630899 -1.208735  3.214135
  S    -2.836641  2.519154  3.205031
  S     0.224953 -1.216152  0.305274
  S     0.043936  2.915882  0.290550
  S    -0.201154 -0.298705  4.363997
  S    -0.442060  3.384759  4.383760
