16  
    
  C     2.810059  1.401590  3.700414
  C     2.968379  5.268741  3.653447
  C     1.576434  1.069300  3.017582
  C     1.738448  5.025653  2.968060
  N     3.875826  1.543829  2.910835
  N     4.026149  5.287490  2.861439
  N     1.659076  0.993333  1.695957
  N     1.822950  4.869182  1.659724
  N     0.978075  0.729039  5.462722
  N     1.093032  4.866807  5.411563
  S     0.197185  0.669095  4.014418
  S     0.327071  4.965803  3.916745
  S     3.192756  1.204063  1.305456
  S     3.395676  4.994690  1.303389
  S     2.512668  1.356892  5.403944
  S     2.765889  5.257254  5.366196
