16  
    
  C    -5.030387 -2.573385  1.926499
  C    -5.439548  1.205233  1.630278
  C    -6.307218 -2.833716  1.295752
  C    -6.690294  0.941263  0.926853
  N    -4.002952 -2.499241  1.057655
  N    -4.386491  1.093122  0.846003
  N    -6.197946 -3.255480  0.034067
  N    -6.698289  0.744839 -0.387517
  N    -6.847452 -2.372836  3.800003
  N    -7.194443  1.077179  3.464541
  S    -7.675883 -2.739590  2.410412
  S    -8.006294  0.806254  2.098583
  S    -4.573987 -3.100108 -0.351194
  S    -4.989335  0.784928 -0.718118
  S    -5.203577 -2.180159  3.599690
  S    -5.550418  1.255924  3.409005
