16  
    
  C     2.899831  1.451570  3.419171
  C     2.880692  5.140507  3.178284
  C     1.714581  0.920981  2.783304
  C     1.715086  4.407227  2.650670
  N     3.859412  1.761091  2.561453
  N     3.888400  5.297033  2.352453
  N     1.865875  0.774689  1.460924
  N     1.810390  4.234820  1.334228
  N     1.174056  1.366771  5.343189
  N     1.257624  5.009423  5.092729
  S     0.409682  0.746709  3.930566
  S     0.458271  4.174846  3.805555
  S     3.407277  1.449350  1.065816
  S     3.313384  4.851193  0.888117
  S     2.806502  1.663001  5.178518
  S     2.844923  5.471703  4.853162
