16  
    
  C    -0.813443 -0.784993  2.369804
  C    -0.828580  3.183730  2.386407
  C    -1.990251 -1.351311  1.688241
  C    -2.013115  2.634637  1.858900
  N     0.208746 -0.469374  1.541774
  N     0.213463  3.212087  1.554090
  N    -1.741369 -1.776016  0.438562
  N    -1.926622  2.418665  0.540214
  N    -2.725173 -0.871846  4.095016
  N    -2.427146  2.780814  4.364077
  S    -3.365918 -1.553091  2.684002
  S    -3.311848  2.603037  3.004391
  S    -0.175950 -1.226057  0.086664
  S    -0.420605  2.883446  0.069877
  S    -1.139539 -0.519149  4.057765
  S    -0.840790  3.259390  4.165230
