16  
    
  C     0.453037  0.014615  2.787319
  C     0.199606  3.779638  2.852446
  C    -0.752830 -0.506080  2.139576
  C    -0.901553  3.087229  2.165666
  N     1.413280  0.288449  1.941194
  N     1.264931  3.909872  2.080376
  N    -0.670711 -0.768971  0.849628
  N    -0.726427  2.976556  0.841327
  N    -1.211606 -0.491542  4.649637
  N    -1.528718  3.031419  4.601117
  S    -2.067985 -0.710826  3.220546
  S    -2.255473  2.761335  3.106450
  S     0.845917 -0.230845  0.493770
  S     0.793888  3.616794  0.492856
  S     0.389918  0.056270  4.515109
  S     0.020076  3.537610  4.603436
