16  
    
  C     2.899622  1.445228  3.387244
  C     2.961131  5.001143  3.205513
  C     1.716865  0.958711  2.750727
  C     1.727990  4.486958  2.648044
  N     3.923625  1.756548  2.587922
  N     3.900664  5.327527  2.318277
  N     1.853113  0.859387  1.433126
  N     1.807311  4.277780  1.358767
  N     1.174753  1.259217  5.356087
  N     1.205006  5.028822  5.097807
  S     0.406268  0.770062  3.934091
  S     0.449470  4.210990  3.779858
  S     3.419657  1.458923  1.071633
  S     3.344227  4.827254  0.874660
  S     2.787989  1.625577  5.145035
  S     2.822992  5.462361  4.857862
