16  
    
  C     3.258309  1.464815  3.623098
  C     3.129100  5.110301  3.477180
  C     1.938610  1.406171  2.975337
  C     1.915627  4.737416  2.807717
  N     4.300958  1.406764  2.823542
  N     4.197567  5.035897  2.707470
  N     1.982347  1.344429  1.649262
  N     2.043332  4.649800  1.465829
  N     1.627351  1.275661  5.500581
  N     1.407033  5.147995  5.271740
  S     0.652139  1.344173  4.177992
  S     0.536829  4.742389  3.920411
  S     3.597910  1.325470  1.243960
  S     3.664114  4.664611  1.213847
  S     3.245630  1.709920  5.337425
  S     3.084668  5.226250  5.192979
