16  
    
  C    -2.516384 -1.944392  1.938542
  C    -3.149736  2.165571  1.679133
  C    -3.822098 -2.067571  1.335479
  C    -4.256333  1.600193  1.008199
  N    -1.510840 -1.931430  1.059732
  N    -2.085315  2.424069  0.946235
  N    -3.817991 -2.209920  0.023040
  N    -4.047585  1.397050 -0.266936
  N    -4.267451 -1.669348  3.837969
  N    -4.988604  1.603804  3.428524
  S    -5.089095 -1.827934  2.422775
  S    -5.473999  0.958560  2.026302
  S    -2.227614 -2.181260 -0.467647
  S    -2.478964  1.944975 -0.591305
  S    -2.636987 -1.541675  3.696963
  S    -3.477652  2.199738  3.430651
