16  
    
  C    -0.196826 -0.365416  2.730059
  C     0.217877  3.428717  2.372777
  C    -1.263742 -0.972974  1.988400
  C    -1.033473  3.032674  1.711809
  N     0.913214 -0.143257  2.015922
  N     1.165418  3.667279  1.502868
  N    -1.068950 -0.968612  0.651373
  N    -0.939251  2.931704  0.411683
  N    -2.149819 -0.645123  4.475942
  N    -1.506656  2.827602  4.178301
  S    -2.759065 -1.043793  2.974321
  S    -2.366181  2.738604  2.800882
  S     0.497941 -0.459137  0.468403
  S     0.591524  3.463606 -0.016062
  S    -0.526888 -0.255133  4.507427
  S     0.043772  3.419722  4.051214
