16  
    
  C    -1.890425 -1.001767  2.384321
  C    -1.837725  2.322697  2.653224
  C    -3.096829 -1.584049  1.761001
  C    -3.046287  1.983206  1.941344
  N    -0.891184 -0.869841  1.548468
  N    -0.904943  2.796620  1.818301
  N    -3.003305 -1.750426  0.431643
  N    -2.932336  1.837136  0.626525
  N    -3.589496 -1.138293  4.301033
  N    -3.735919  2.080502  4.395901
  S    -4.400947 -1.518272  2.945148
  S    -4.514689  1.901980  2.928606
  S    -1.422096 -1.239856  0.017020
  S    -1.393475  2.398802  0.296358
  S    -1.973943 -0.883921  4.121777
  S    -2.084455  2.409641  4.349345
