16  
    
  C    -4.256012 -1.861948  2.054262
  C    -4.151769  1.397399  1.953321
  C    -5.529890 -2.315727  1.474583
  C    -5.398564  1.200411  1.298381
  N    -3.210504 -1.894125  1.207844
  N    -3.124130  1.437787  1.112472
  N    -5.458097 -2.417823  0.148673
  N    -5.393447  0.960891 -0.022436
  N    -5.989463 -1.984318  3.973896
  N    -5.869391  1.368792  3.800914
  S    -6.804713 -2.467845  2.604001
  S    -6.736159  1.028283  2.464575
  S    -3.867181 -2.259657 -0.315897
  S    -3.744842  1.147566 -0.458226
  S    -4.398401 -1.727818  3.765794
  S    -4.259579  1.740369  3.647993
