16  
    
  C    -4.289594 -1.825690  1.969607
  C    -4.165938  1.595464  1.888761
  C    -5.578830 -2.211485  1.357896
  C    -5.372624  1.096199  1.382426
  N    -3.262860 -1.704451  1.133805
  N    -3.134972  1.520358  1.020082
  N    -5.395425 -2.628726  0.081762
  N    -5.420832  0.869383  0.056921
  N    -6.009483 -2.123119  3.915530
  N    -5.825570  1.477749  3.852723
  S    -6.815743 -2.382266  2.473445
  S    -6.679499  0.968880  2.509649
  S    -3.776280 -2.327093 -0.295874
  S    -3.797315  1.082700 -0.377748
  S    -4.415793 -1.596872  3.726988
  S    -4.201393  1.808954  3.568314
