16  
    
  C     2.537003  1.114560  3.240416
  C     2.589014  4.989175  3.593530
  C     1.380382  0.644480  2.504277
  C     1.406128  4.339954  3.070205
  N     3.632250  1.186186  2.529665
  N     3.539072  5.287348  2.716889
  N     1.582992  0.467307  1.186015
  N     1.464061  4.080557  1.754675
  N     0.629001  1.128256  4.983063
  N     0.974262  4.883826  5.549770
  S     0.082520  0.422610  3.597306
  S     0.175639  4.215971  4.307419
  S     3.234624  0.826259  0.961792
  S     2.983762  4.611843  1.267006
  S     2.310767  1.336133  4.930993
  S     2.482832  5.363375  5.274514
