16  
    
  C    -0.193412 -0.251565  2.564083
  C     0.038182  3.678470  2.335730
  C    -1.457263 -0.713053  2.016353
  C    -1.222391  3.247418  1.778724
  N     0.786404 -0.155733  1.656236
  N     1.082029  3.701786  1.530041
  N    -1.499468 -0.696346  0.665513
  N    -1.155364  2.932250  0.523645
  N    -1.730731 -0.331961  4.591752
  N    -1.661580  3.514306  4.291516
  S    -2.646666 -0.675712  3.227964
  S    -2.534968  3.034719  2.927661
  S     0.084055 -0.361492  0.135767
  S     0.388907  3.327771  0.024291
  S    -0.111196 -0.100934  4.324523
  S    -0.106362  3.935050  4.100378
