16  
    
  C    -1.049032 -0.441574  2.406154
  C    -1.157090  2.964615  2.356746
  C    -2.219714 -1.080712  1.746928
  C    -2.448367  2.860054  1.734452
  N     0.037848 -0.165387  1.608821
  N    -0.127507  3.117463  1.513022
  N    -2.060016 -1.141316  0.428443
  N    -2.328620  2.550303  0.447368
  N    -2.837903 -0.971002  4.214657
  N    -2.948630  3.181743  4.235025
  S    -3.529928 -1.442190  2.734105
  S    -3.759389  2.995033  2.798162
  S    -0.544067 -0.544706  0.070829
  S    -0.733044  2.663436  0.053226
  S    -1.258919 -0.433410  4.098423
  S    -1.302944  3.262513  4.116480
