16  
    
  C    -4.267884 -1.883993  1.858510
  C    -4.140711  1.594358  1.858012
  C    -5.482799 -2.390520  1.262932
  C    -5.358992  1.040189  1.321717
  N    -3.201164 -1.730666  1.047769
  N    -3.223210  1.695167  0.926359
  N    -5.284801 -2.815336  0.048247
  N    -5.287744  0.601293  0.072168
  N    -6.010380 -2.205769  3.777167
  N    -5.902349  1.753116  3.858352
  S    -6.838713 -2.284864  2.360543
  S    -6.651892  0.953184  2.583784
  S    -3.757682 -2.361348 -0.376563
  S    -3.806996  1.051446 -0.484261
  S    -4.466117 -1.491347  3.542119
  S    -4.241025  1.908727  3.648397
