16  
    
  C    -1.536596 -1.312029  2.161268
  C    -1.728411  2.314716  1.915543
  C    -2.807036 -1.345562  1.477755
  C    -2.958753  1.945503  1.305482
  N    -0.537116 -1.343851  1.285189
  N    -0.696722  2.444611  1.073775
  N    -2.769427 -1.545138  0.156555
  N    -2.941080  2.048968 -0.036509
  N    -3.234653 -0.980046  4.047383
  N    -3.464092  2.364750  3.778061
  S    -4.137010 -1.189336  2.634783
  S    -4.308608  1.824308  2.470974
  S    -1.152417 -1.385603 -0.196743
  S    -1.337570  2.225566 -0.443214
  S    -1.580348 -0.799306  3.790936
  S    -1.822924  2.419944  3.648678
