16  
    
  C    -0.132265 -0.448599  2.795991
  C     0.215091  3.268844  2.362964
  C    -1.289499 -0.896367  2.032837
  C    -1.036404  3.028113  1.717607
  N     0.945574 -0.149024  2.046313
  N     1.186954  3.722447  1.544133
  N    -1.066994 -1.002522  0.731957
  N    -0.942680  2.953255  0.382160
  N    -2.140115 -0.636720  4.448977
  N    -1.511770  2.839575  4.211545
  S    -2.739051 -1.149161  2.948659
  S    -2.345099  2.650550  2.766429
  S     0.477260 -0.448827  0.460512
  S     0.577755  3.401252  0.003239
  S    -0.542865 -0.262722  4.418544
  S    -0.008904  3.447597  4.122139
