16  
    
  C    -2.134966 -0.858479  2.272135
  C    -2.192563  2.452098  1.948312
  C    -3.293425 -1.398691  1.681794
  C    -3.474572  2.109252  1.353441
  N    -1.049722 -0.778295  1.470542
  N    -1.269414  2.601575  1.019968
  N    -3.134698 -1.686725  0.375739
  N    -3.435426  1.725876  0.062693
  N    -3.896412 -1.154718  4.081401
  N    -3.876920  2.371117  3.926311
  S    -4.692874 -1.355144  2.653986
  S    -4.727923  1.982228  2.548728
  S    -1.575431 -1.303712  0.011056
  S    -1.870990  2.051685 -0.402548
  S    -2.287113 -0.780618  3.993950
  S    -2.257498  2.659989  3.712207
