16  
    
  C    -1.423692 -1.062616  2.426934
  C    -1.551512  2.822487  2.098997
  C    -2.521246 -1.473479  1.644107
  C    -2.541117  1.919102  1.521891
  N    -0.338363 -0.597221  1.754108
  N    -0.446340  3.074282  1.365024
  N    -2.219116 -1.643957  0.328110
  N    -2.258418  1.617381  0.254670
  N    -3.410938 -1.411520  4.038495
  N    -3.404041  2.466950  3.876921
  S    -3.963231 -1.819924  2.546635
  S    -3.928315  1.662101  2.486797
  S    -0.662772 -1.052482  0.181787
  S    -0.815268  2.392739 -0.120463
  S    -1.785926 -1.009845  4.143614
  S    -1.815838  3.016465  3.872057
