16  
    
  C    -1.432710 -1.141463  2.614029
  C    -1.520074  2.679704  2.286264
  C    -2.493437 -1.588651  1.757513
  C    -2.609337  2.063853  1.622483
  N    -0.364410 -0.882278  1.942980
  N    -0.358066  2.736941  1.598660
  N    -2.315069 -1.592652  0.473947
  N    -2.351780  1.847124  0.325689
  N    -3.336079 -1.657238  4.163601
  N    -3.449314  2.455866  4.037411
  S    -3.939458 -1.955856  2.642600
  S    -4.045802  1.766083  2.614932
  S    -0.682439 -1.167810  0.346766
  S    -0.803720  2.311080  0.058409
  S    -1.869001 -0.961701  4.288934
  S    -1.881296  3.041512  3.973348
