16  
    
  C     1.590324  0.637078  2.833727
  C     0.850915  3.917295  2.499055
  C     0.341719  0.209524  2.252817
  C    -0.321360  3.303881  1.871499
  N     2.578999  0.834085  1.982375
  N     1.855839  4.112744  1.679790
  N     0.452398  0.060837  0.909558
  N    -0.251306  3.254659  0.525686
  N    -0.150868  0.621716  4.721451
  N    -0.788180  3.654506  4.397094
  S    -0.962884  0.023491  3.357590
  S    -1.616221  3.181138  3.006718
  S     2.021787  0.440018  0.483483
  S     1.318829  3.649950  0.148378
  S     1.502061  1.058846  4.481115
  S     0.758526  4.192502  4.261334
