16  
    
  C    -5.164669 -2.541726  1.861936
  C    -5.399721  1.014651  1.554532
  C    -6.413750 -2.745232  1.230918
  C    -6.660639  0.706356  0.939293
  N    -4.143149 -2.487788  1.001548
  N    -4.337247  1.104488  0.748044
  N    -6.341727 -3.113369 -0.049622
  N    -6.648764  0.672369 -0.376856
  N    -6.929201 -2.055627  3.620192
  N    -7.130990  1.067257  3.438422
  S    -7.685707 -2.762015  2.346645
  S    -7.969810  0.974912  2.050099
  S    -4.773787 -2.844176 -0.442736
  S    -4.997822  0.910148 -0.792691
  S    -5.269975 -2.072521  3.539396
  S    -5.554028  1.361549  3.285782
