16  
    
  C    -5.638670 -2.771750  1.589259
  C    -5.515851  0.982172  1.366912
  C    -6.827413 -3.103342  0.824200
  C    -6.691667  0.386225  0.804809
  N    -4.572321 -2.589843  0.817121
  N    -4.447893  1.162510  0.561178
  N    -6.566556 -3.290802 -0.455721
  N    -6.596206  0.222217 -0.534503
  N    -7.451811 -3.127178  3.296136
  N    -7.281758  0.652009  3.240622
  S    -8.242904 -3.237949  1.843852
  S    -8.003242  0.185793  1.870866
  S    -5.004640 -2.865610 -0.707532
  S    -5.075495  0.736238 -0.922276
  S    -5.834674 -2.569411  3.263895
  S    -5.703503  1.086496  3.116628
