16  
    
  C     0.677474  0.296153  3.040308
  C     0.693917  3.945672  2.875104
  C    -0.591529 -0.005150  2.452847
  C    -0.534583  3.386897  2.285791
  N     1.696105  0.289412  2.212236
  N     1.729588  3.899576  2.061780
  N    -0.561023 -0.143496  1.128851
  N    -0.488343  3.256129  0.951775
  N    -1.079232  0.258759  4.975271
  N    -0.976701  3.624154  4.835693
  S    -1.928406  0.040594  3.577981
  S    -1.838424  3.217927  3.396250
  S     1.024194  0.013527  0.691644
  S     1.068292  3.665310  0.480145
  S     0.531599  0.474714  4.756778
  S     0.604990  4.034753  4.602357
