16  
    
  C    -0.058067 -0.400616  2.427253
  C    -0.326595  3.346028  2.709209
  C    -1.275111 -0.945257  1.833292
  C    -1.609112  3.227136  2.044821
  N     0.942758 -0.273951  1.555935
  N     0.655543  3.402046  1.819792
  N    -1.180486 -0.969209  0.494381
  N    -1.617103  2.968366  0.732949
  N    -1.887581 -0.590655  4.246659
  N    -2.094064  3.237247  4.658731
  S    -2.606282 -1.316080  2.928695
  S    -2.884384  2.884789  3.203155
  S     0.319340 -0.637584  0.035257
  S    -0.029445  3.260197  0.291133
  S    -0.339202 -0.033699  4.103219
  S    -0.458154  3.701621  4.419393
