16  
    
  C    -2.169004 -1.175954  2.050951
  C    -2.655510  2.593499  2.191150
  C    -3.258089 -1.866142  1.393235
  C    -3.746563  1.860929  1.657504
  N    -1.349311 -0.631335  1.188971
  N    -1.674075  2.808533  1.318351
  N    -3.104261 -2.033401  0.087697
  N    -3.685017  1.656879  0.336086
  N    -3.721263 -1.738213  4.000489
  N    -4.381405  2.354181  4.142272
  S    -4.467856 -2.343298  2.593656
  S    -5.181433  1.754096  2.762899
  S    -1.722921 -1.172236 -0.311227
  S    -2.242205  2.342046 -0.126189
  S    -2.250320 -0.944386  3.747943
  S    -2.817456  2.856190  3.885193
