16  
    
  C     2.054693  1.006577  3.212663
  C     2.133926  4.491055  2.929829
  C     0.810257  0.673518  2.579935
  C     0.963839  3.881100  2.364868
  N     3.095426  1.073156  2.389845
  N     3.236307  4.542988  2.197827
  N     0.887507  0.612680  1.245586
  N     1.116151  3.738430  1.050983
  N     0.347462  0.875695  5.123759
  N     0.408766  4.243484  4.770749
  S    -0.433100  0.449468  3.704674
  S    -0.400745  3.885570  3.372568
  S     2.521815  0.843338  0.883577
  S     2.716331  4.180821  0.654042
  S     1.953011  1.411521  4.872797
  S     1.983396  4.565850  4.643292
