16  
    
  C     2.527942  1.125003  3.256720
  C     2.522846  4.676035  3.522566
  C     1.310997  0.814881  2.506336
  C     1.347367  4.285987  2.779538
  N     3.614268  1.293303  2.488314
  N     3.517377  5.022940  2.723901
  N     1.449059  0.870850  1.163783
  N     1.504571  4.298550  1.465524
  N     0.627846  0.772402  5.032346
  N     0.565307  4.411174  5.149465
  S    -0.005018  0.271103  3.522857
  S    -0.050624  3.931285  3.751160
  S     3.036396  1.147682  0.866288
  S     3.064696  4.760974  1.098064
  S     2.335271  0.961945  5.003327
  S     2.107926  4.937480  5.237572
