16  
    
  C    -2.847223 -2.008873  2.009983
  C    -2.871727  2.463932  1.917312
  C    -4.019686 -2.230336  1.190661
  C    -4.042851  2.087318  1.213158
  N    -1.765245 -1.720520  1.298179
  N    -1.741827  2.501754  1.221516
  N    -3.812466 -2.276470 -0.140832
  N    -3.841963  1.936488 -0.098844
  N    -4.766487 -2.058369  3.715807
  N    -4.627647  1.882032  3.695079
  S    -5.415038 -2.393377  2.284974
  S    -5.371858  1.568965  2.252304
  S    -2.186611 -1.942517 -0.303741
  S    -2.225981  2.148840 -0.345621
  S    -3.118410 -1.683917  3.706254
  S    -3.055996  2.365567  3.618345
