16  
    
  C    -3.220748 -2.180751  1.933389
  C    -3.792745  1.910542  1.957288
  C    -4.432944 -2.601416  1.292723
  C    -4.702248  1.029200  1.347756
  N    -2.213028 -1.962081  1.091844
  N    -2.724601  2.221850  1.217849
  N    -4.249320 -2.887309  0.011592
  N    -4.368480  0.775736  0.091166
  N    -5.091604 -2.239909  3.697222
  N    -5.611591  1.485157  3.648681
  S    -5.764272 -2.887921  2.333367
  S    -6.046534  0.612124  2.278045
  S    -2.716145 -2.488906 -0.392634
  S    -2.964721  1.587265 -0.243456
  S    -3.596496 -1.570559  3.487930
  S    -4.125607  2.214237  3.667502
