16  
    
  C    -4.256737 -1.917772  1.865322
  C    -4.129187  1.623310  1.870758
  C    -5.454435 -2.377653  1.248139
  C    -5.346842  1.002284  1.336070
  N    -3.209659 -1.740572  1.032918
  N    -3.221217  1.693294  0.913220
  N    -5.297550 -2.834371  0.027163
  N    -5.303710  0.584282  0.083737
  N    -6.010551 -2.197092  3.787805
  N    -5.917907  1.769580  3.850154
  S    -6.825706 -2.282776  2.352038
  S    -6.652753  0.954179  2.579193
  S    -3.752596 -2.369693 -0.393608
  S    -3.804253  1.057723 -0.476036
  S    -4.482664 -1.487437  3.523446
  S    -4.246627  1.914851  3.632211
