16  
    
  C     2.338398  1.279477  3.424571
  C     2.348833  4.760957  3.322998
  C     1.158873  0.802946  2.732114
  C     1.095485  4.486965  2.661470
  N     3.330285  1.639619  2.629289
  N     3.319060  5.044539  2.461507
  N     1.286048  0.711413  1.402538
  N     1.251461  4.286174  1.356615
  N     0.473811  0.636804  5.203350
  N     0.601954  4.244696  5.193196
  S    -0.258266  0.476247  3.747935
  S    -0.152543  3.833906  3.731553
  S     2.766345  1.225143  1.043615
  S     2.746844  4.760848  0.895266
  S     2.125444  0.992594  5.157023
  S     2.179138  4.708116  5.048914
