16  
    
  C    -2.173654 -0.776768  2.268314
  C    -2.159449  2.435398  1.935211
  C    -3.373152 -1.341977  1.607781
  C    -3.425697  2.024254  1.392684
  N    -1.090332 -0.795116  1.526267
  N    -1.162809  2.600254  1.035840
  N    -3.174294 -1.651103  0.344325
  N    -3.366291  1.758987  0.094613
  N    -3.900654 -1.195666  4.137946
  N    -3.845647  2.353619  3.878871
  S    -4.738551 -1.282351  2.723150
  S    -4.691496  1.959999  2.544527
  S    -1.576214 -1.322056 -0.001248
  S    -1.797064  2.049867 -0.385786
  S    -2.304364 -0.750306  4.016695
  S    -2.229534  2.595027  3.700474
