16  
    
  C    -5.904393 -2.944965  1.319629
  C    -5.999154  0.813971  1.357910
  C    -7.062050 -3.379850  0.575412
  C    -7.203284  0.668103  0.650225
  N    -4.756366 -2.983636  0.635776
  N    -4.957449  0.967132  0.560770
  N    -6.886554 -3.432074 -0.740450
  N    -7.059107  0.577009 -0.683241
  N    -7.752126 -3.367740  3.087859
  N    -7.817421  0.276238  3.159539
  S    -8.517048 -3.507818  1.633474
  S    -8.596651  0.303005  1.724460
  S    -5.205713 -3.258871 -0.996300
  S    -5.428224  0.806059 -1.032060
  S    -6.108473 -2.877896  3.036077
  S    -6.197805  0.643590  3.096558
