16  
    
  C     2.710068  1.162809  3.565316
  C     2.899052  5.062931  3.617180
  C     1.537406  0.791292  2.823875
  C     1.587331  4.862002  3.014786
  N     3.776071  1.574430  2.890784
  N     3.929819  4.823208  2.817906
  N     1.725918  0.823544  1.512174
  N     1.650005  4.829698  1.678468
  N     0.812602  0.831884  5.325197
  N     1.218385  5.435484  5.518575
  S     0.132737  0.493944  3.862242
  S     0.319629  5.188375  4.124008
  S     3.300602  1.386261  1.255064
  S     3.302105  4.913555  1.323047
  S     2.420961  1.064260  5.253409
  S     2.889763  5.269642  5.313329
