16  
    
  C    -4.683509 -2.295947  1.528250
  C    -4.448979  1.315156  1.887175
  C    -5.815314 -2.797045  0.741282
  C    -5.653554  0.896245  1.244276
  N    -3.658593 -1.930223  0.770505
  N    -3.509745  1.761345  1.038084
  N    -5.661263 -2.645838 -0.548457
  N    -5.500383  0.758277 -0.048466
  N    -6.404657 -2.914241  3.217564
  N    -6.099308  0.777683  3.779901
  S    -7.141260 -3.221416  1.774559
  S    -6.836794  0.267980  2.446447
  S    -4.142323 -2.122839 -0.813362
  S    -4.016246  1.357968 -0.545400
  S    -4.869761 -2.309970  3.229075
  S    -4.510105  1.176343  3.719815
