16  
    
  C    -0.885189 -0.676595  2.470631
  C    -0.498762  3.232141  2.927439
  C    -2.168221 -0.797199  1.713033
  C    -1.675154  2.780803  2.276825
  N     0.136180 -0.620881  1.658306
  N     0.582894  3.293660  2.132537
  N    -1.976410 -1.012054  0.408168
  N    -1.602004  2.714797  0.942129
  N    -2.645244 -0.633309  4.273705
  N    -2.327327  3.369937  4.678927
  S    -3.371061 -1.141903  2.851873
  S    -3.094825  2.717469  3.369556
  S    -0.375921 -0.798709  0.120819
  S     0.007761  2.895393  0.593669
  S    -1.011869 -0.441473  4.168285
  S    -0.745413  3.751937  4.561418
