16  
    
  C    -3.996296 -1.873250  1.694970
  C    -3.747696  1.732311  1.766087
  C    -5.203522 -2.344267  1.024751
  C    -5.001333  1.339588  1.200383
  N    -2.928106 -1.686276  0.939977
  N    -2.683854  1.824628  0.980644
  N    -4.960177 -2.635350 -0.268064
  N    -4.979547  1.350977 -0.125993
  N    -5.840804 -1.957478  3.521751
  N    -5.477976  1.575509  3.690589
  S    -6.494545 -2.426528  2.104198
  S    -6.342193  1.176324  2.326329
  S    -3.369254 -2.161341 -0.604336
  S    -3.387248  1.604738 -0.610584
  S    -4.270794 -1.488999  3.391440
  S    -3.856554  1.740219  3.552590
