16  
    
  C     3.438132  1.670441  3.602614
  C     2.972649  5.195886  3.380508
  C     2.188380  1.194259  3.080298
  C     1.848442  4.667994  2.689096
  N     4.303651  1.877615  2.633477
  N     4.022411  5.537513  2.608835
  N     2.168094  1.016135  1.781171
  N     2.061092  4.432475  1.402395
  N     1.933529  1.443277  5.688274
  N     1.334049  4.748885  5.273235
  S     1.074243  0.936783  4.346012
  S     0.542226  4.311358  3.871405
  S     3.655771  1.438373  1.203410
  S     3.650563  4.910879  1.101468
  S     3.563324  1.692487  5.338646
  S     2.796023  5.550631  5.061129
