16  
    
  C    -4.172037 -2.064989  1.789048
  C    -4.226478  1.567392  1.848981
  C    -5.461952 -2.380314  1.134513
  C    -5.404193  0.920637  1.338353
  N    -3.156659 -2.103012  0.913269
  N    -3.212903  1.659059  1.001893
  N    -5.381073 -2.787569 -0.117282
  N    -5.305738  0.539502  0.086678
  N    -6.004927 -1.979323  3.625444
  N    -6.011145  1.673531  3.781682
  S    -6.827410 -2.504493  2.199708
  S    -6.733904  0.935420  2.433132
  S    -3.779918 -2.574413 -0.557390
  S    -3.711989  1.041586 -0.406524
  S    -4.366829 -1.544307  3.432490
  S    -4.351433  2.173332  3.553686
