16  
    
  C    -4.543063 -2.316184  1.508597
  C    -4.381257  1.416046  1.906726
  C    -5.593180 -2.872878  0.716921
  C    -5.561075  0.741303  1.345963
  N    -3.533093 -1.831413  0.779056
  N    -3.459800  1.777331  0.983733
  N    -5.411295 -2.918587 -0.587904
  N    -5.577272  0.752144  0.010516
  N    -6.367405 -2.995156  3.216770
  N    -5.937587  0.863065  3.993959
  S    -7.031948 -3.272272  1.661977
  S    -6.819925  0.478475  2.579117
  S    -3.880142 -2.203829 -0.795502
  S    -4.120762  1.455867 -0.512886
  S    -4.787385 -2.402330  3.250670
  S    -4.440529  1.566182  3.720970
