16  
    
  C    -5.765204 -3.131805  1.590593
  C    -6.045788  0.734883  1.376798
  C    -6.933721 -3.441637  0.809232
  C    -7.219232  0.174239  0.843319
  N    -4.644245 -2.926154  0.912624
  N    -5.228264  1.265364  0.457485
  N    -6.724792 -3.609215 -0.487421
  N    -7.226931  0.139470 -0.479316
  N    -7.770829 -3.093861  3.225813
  N    -7.697693  0.260605  3.395531
  S    -8.406817 -3.476351  1.717824
  S    -8.435059 -0.274826  2.008902
  S    -5.086829 -3.301980 -0.712825
  S    -5.868269  0.965084 -1.041555
  S    -6.096445 -3.015140  3.320736
  S    -6.141601  0.888217  3.088826
