16  
    
  C    -2.397995 -1.089729  2.183697
  C    -2.722528  2.648330  2.347906
  C    -3.440369 -1.880711  1.509919
  C    -3.870284  2.034015  1.730493
  N    -1.400326 -0.771034  1.340870
  N    -1.750093  2.998026  1.509365
  N    -3.381501 -1.862665  0.171687
  N    -3.703529  1.754733  0.424701
  N    -4.100337 -1.607774  3.952574
  N    -4.390002  2.133363  4.214952
  S    -4.745895 -2.249760  2.572498
  S    -5.062654  1.384029  2.921023
  S    -1.868258 -1.214275 -0.172307
  S    -2.257149  2.425218 -0.034877
  S    -2.557393 -0.935510  3.883630
  S    -2.890204  2.800470  4.034156
