16  
    
  C     1.589839  0.724694  2.835980
  C     0.946104  3.817636  2.532643
  C     0.386518  0.175524  2.252049
  C    -0.300939  3.549536  1.909101
  N     2.603556  0.787420  1.980755
  N     1.934590  3.997919  1.652671
  N     0.496499 -0.159127  0.924537
  N    -0.182536  3.270047  0.609246
  N    -0.156965  0.688392  4.690577
  N    -0.830302  3.549006  4.443957
  S    -0.959296  0.187523  3.352866
  S    -1.639370  3.183780  3.011930
  S     2.035877  0.261907  0.536743
  S     1.334558  3.711591  0.170143
  S     1.376928  1.133198  4.518449
  S     0.699382  4.120705  4.200453
