16  
    
  C     1.099771  0.264297  3.129066
  C     1.076072  4.174391  2.630671
  C    -0.051933  0.096167  2.295584
  C    -0.105496  3.596553  1.907981
  N     2.266099  0.272867  2.432780
  N     2.170421  4.380104  1.874103
  N     0.194028 -0.115106  1.015780
  N     0.215976  3.093375  0.734951
  N    -0.784693  0.282472  4.720144
  N    -0.980343  4.067929  4.255280
  S    -1.515131  0.228968  3.289974
  S    -1.447823  3.196090  2.960016
  S     1.870039  0.000200  0.807223
  S     1.753107  3.649932  0.336400
  S     0.826412  0.497582  4.819613
  S     0.648369  4.541796  4.274411
