16  
    
  C    -1.323980 -0.937008  2.359441
  C    -1.587875  2.869304  2.029351
  C    -2.509539 -1.364605  1.537107
  C    -2.561743  2.003355  1.387839
  N    -0.261931 -0.720041  1.645987
  N    -0.508739  3.147087  1.269923
  N    -2.267976 -1.509200  0.260470
  N    -2.381918  1.838559  0.058506
  N    -3.284612 -1.522991  3.987725
  N    -3.350051  2.385555  3.867726
  S    -3.969607 -1.681131  2.532920
  S    -3.876802  1.639349  2.457768
  S    -0.679952 -1.024107  0.039566
  S    -0.831472  2.475660 -0.207425
  S    -1.758348 -0.873408  4.036185
  S    -1.873053  3.174349  3.720959
