16  
    
  C    -0.200324 -0.358515  2.729857
  C     0.195054  3.462516  2.363705
  C    -1.275828 -0.970162  1.975740
  C    -1.025751  3.024673  1.715328
  N     0.901516 -0.138578  2.015559
  N     1.174114  3.657700  1.502015
  N    -1.068714 -0.965041  0.645462
  N    -0.944077  2.932568  0.407978
  N    -2.149743 -0.647381  4.474191
  N    -1.508104  2.827576  4.181073
  S    -2.758926 -1.026450  2.978010
  S    -2.370573  2.754121  2.804758
  S     0.501209 -0.463264  0.465886
  S     0.592692  3.473633 -0.020792
  S    -0.521526 -0.254205  4.519700
  S     0.056249  3.416084  4.043876
