16  
    
  C    -0.076731 -0.698664  2.610153
  C    -0.258854  3.149714  2.650929
  C    -1.310280 -1.108895  2.057543
  C    -1.566843  2.724711  2.090590
  N     0.887392 -0.579412  1.702012
  N     0.601994  3.493590  1.691925
  N    -1.315485 -1.556619  0.778003
  N    -1.468871  2.484696  0.799195
  N    -1.828628 -0.684651  4.547435
  N    -1.950262  2.875715  4.562399
  S    -2.643696 -1.188872  3.192818
  S    -2.813211  2.523732  3.199531
  S     0.252851 -1.167300  0.277429
  S     0.042267  2.897637  0.269970
  S    -0.155677 -0.303885  4.367899
  S    -0.396987  3.347264  4.418652
