16  
    
  C     2.935758  1.464236  3.420777
  C     3.006558  4.944503  3.232982
  C     1.732675  1.005124  2.754044
  C     1.769465  4.535946  2.652010
  N     3.972685  1.760568  2.646384
  N     3.917354  5.335279  2.320848
  N     1.851233  0.945452  1.402722
  N     1.829665  4.319216  1.328833
  N     1.186164  1.165838  5.325250
  N     1.163779  5.020710  5.088466
  S     0.403608  0.786341  3.932526
  S     0.456820  4.259035  3.773787
  S     3.402736  1.440567  1.062930
  S     3.353450  4.801375  0.851791
  S     2.770419  1.601565  5.110053
  S     2.789235  5.448381  4.875327
