16  
    
  C     1.371585  0.702034  3.145805
  C     1.009216  4.495990  2.909711
  C     0.084043  0.308869  2.612503
  C    -0.040848  3.795973  2.167411
  N     2.341884  0.725822  2.259965
  N     2.106974  4.659840  2.126735
  N     0.155085  0.097848  1.309277
  N     0.242794  3.745779  0.863128
  N    -0.361916  0.708721  5.170892
  N    -0.836148  3.823597  4.588454
  S    -1.244070  0.239515  3.810598
  S    -1.476187  3.493795  3.088570
  S     1.730024  0.412957  0.787367
  S     1.780525  4.279272  0.584318
  S     1.279467  1.158207  4.834463
  S     0.788726  4.337679  4.623861
