16  
    
  C     2.697521  1.358403  3.658506
  C     2.917377  5.240480  3.583246
  C     1.488756  0.879047  3.021094
  C     1.727770  4.834977  2.835917
  N     3.748883  1.583770  2.897187
  N     3.998483  5.493750  2.851453
  N     1.651191  0.724567  1.698946
  N     1.944557  4.923866  1.529314
  N     1.031001  1.194743  5.547099
  N     1.090812  4.717386  5.409906
  S     0.185665  0.745528  4.187971
  S     0.294773  4.734573  3.965707
  S     3.171045  1.202133  1.323190
  S     3.543969  5.210050  1.236919
  S     2.685723  1.546251  5.395535
  S     2.677489  5.348075  5.320863
