16  
    
  C    -3.821137 -2.471001  1.619552
  C    -3.351704  1.703513  1.579825
  C    -5.098372 -2.318600  0.958401
  C    -4.580682  1.050189  1.034796
  N    -2.790980 -2.265121  0.807405
  N    -2.372118  1.952188  0.739519
  N    -5.077560 -2.135209 -0.361075
  N    -4.476219  0.943668 -0.271130
  N    -5.564464 -2.559282  3.503929
  N    -5.093817  1.494759  3.486533
  S    -6.442733 -2.754393  2.076906
  S    -5.901783  0.950750  2.103618
  S    -3.478859 -2.051229 -0.727503
  S    -3.026511  1.511301 -0.745091
  S    -3.923026 -2.594284  3.345784
  S    -3.560138  2.184263  3.209478
