16  
    
  C     1.758284  0.564054  3.025734
  C     1.880348  4.246768  3.309180
  C     0.491282  0.186192  2.451494
  C     0.619525  3.987950  2.709130
  N     2.710244  0.771537  2.171263
  N     2.937437  4.347673  2.540629
  N     0.505014  0.024878  1.137511
  N     0.668889  4.235086  1.428614
  N     0.177231  0.323174  4.951399
  N     0.174759  3.929288  5.223367
  S    -0.773202  0.078089  3.634700
  S    -0.725204  3.815798  3.809558
  S     2.113657  0.455832  0.663868
  S     2.347755  4.289692  0.957195
  S     1.860956  0.523893  4.745682
  S     1.822342  4.244881  5.038684
