16  
    
  C     1.399359  0.745092  2.986805
  C     0.986729  4.087263  2.645300
  C     0.172971  0.251608  2.396288
  C    -0.169137  3.591550  1.904592
  N     2.436173  1.002311  2.152223
  N     2.066836  4.423972  1.973558
  N     0.291298  0.117994  1.066071
  N     0.040860  3.514310  0.589408
  N    -0.325676  0.523516  4.880939
  N    -0.938669  3.844447  4.421106
  S    -1.188637  0.109089  3.511803
  S    -1.527564  3.147746  2.943374
  S     1.814112  0.605223  0.598225
  S     1.616127  4.069348  0.353452
  S     1.294909  0.787070  4.742747
  S     0.632841  4.408703  4.393465
