16  
    
  C    -4.734472 -2.628142  1.650877
  C    -4.865786  1.280975  1.469427
  C    -5.968107 -3.012254  1.068856
  C    -5.963157  0.664150  0.832366
  N    -3.806302 -2.317543  0.731888
  N    -3.768450  1.373828  0.680349
  N    -5.945063 -3.222834 -0.254098
  N    -5.779745  0.523110 -0.476649
  N    -6.321080 -2.783060  3.664133
  N    -6.575285  0.762835  3.334042
  S    -7.206386 -2.986203  2.307425
  S    -7.256999  0.306731  1.899403
  S    -4.428611 -2.744660 -0.754373
  S    -4.217536  0.843440 -0.777533
  S    -4.757120 -2.197606  3.347367
  S    -4.960394  1.234378  3.191213
