16  
    
  C    -0.159623 -0.420674  2.749240
  C     0.099430  3.414646  2.455179
  C    -1.288219 -0.928938  1.977297
  C    -1.034162  2.845495  1.743079
  N     0.943019 -0.207622  1.992045
  N     1.145314  3.544982  1.621195
  N    -1.093811 -0.954437  0.657350
  N    -0.987474  2.960770  0.409975
  N    -2.115483 -0.688322  4.332110
  N    -1.678639  2.885841  4.250710
  S    -2.682546 -1.334260  2.922928
  S    -2.337486  2.467861  2.781516
  S     0.447157 -0.491178  0.468505
  S     0.611748  3.353680  0.042724
  S    -0.497589 -0.274231  4.440816
  S    -0.067422  3.490792  4.182101
