16  
    
  C    -3.523849 -2.536707  1.878069
  C    -3.694821  1.956462  1.823271
  C    -4.712579 -3.027542  1.190311
  C    -4.620372  1.015094  1.243818
  N    -2.424736 -2.359201  1.170687
  N    -2.705515  2.293518  1.040640
  N    -4.516532 -3.209218 -0.120899
  N    -4.404361  0.683840 -0.027610
  N    -5.461570 -2.526428  3.646128
  N    -5.392197  1.460466  3.685642
  S    -6.003846 -3.347217  2.324293
  S    -5.973482  0.577308  2.387865
  S    -2.915072 -2.735771 -0.398552
  S    -2.978581  1.473020 -0.457390
  S    -3.812813 -2.178491  3.606681
  S    -3.944792  2.267376  3.570424
