16  
    
  C    -2.973284 -1.711835  1.935092
  C    -3.366171  1.494888  2.108505
  C    -4.204663 -2.318971  1.456534
  C    -4.645866  1.276713  1.446746
  N    -1.998422 -1.658830  1.026587
  N    -2.312859  1.566546  1.272346
  N    -4.207923 -2.496231  0.136091
  N    -4.554868  0.998107  0.139227
  N    -4.603090 -2.043147  3.962176
  N    -5.232571  1.567331  4.031417
  S    -5.479953 -2.257486  2.582041
  S    -5.966058  1.189069  2.584200
  S    -2.723915 -2.050586 -0.394584
  S    -2.964252  1.166465 -0.244204
  S    -3.042939 -1.555903  3.696703
  S    -3.599640  1.757850  3.815993
