16  
    
  C     3.536524  1.714397  3.613584
  C     3.065398  5.299743  3.411055
  C     2.235106  1.257796  3.059113
  C     1.957517  4.672664  2.793486
  N     4.485967  1.946332  2.725771
  N     4.131992  5.432156  2.622156
  N     2.185612  1.135018  1.751913
  N     2.053965  4.433398  1.512511
  N     2.011195  1.450350  5.614766
  N     1.302873  4.977172  5.222550
  S     1.035559  0.926760  4.388860
  S     0.617626  4.302001  3.829604
  S     3.722286  1.555052  1.202009
  S     3.522439  5.009005  1.117158
  S     3.614484  1.738213  5.305010
  S     2.864133  5.497008  5.096543
