16  
    
  C     1.479866  0.683798  2.925579
  C     0.877834  3.869606  2.551648
  C     0.251747  0.257606  2.282818
  C    -0.303377  3.597203  1.828979
  N     2.577871  0.607824  2.152758
  N     1.918067  4.187986  1.777399
  N     0.466034 -0.159863  1.032970
  N    -0.047524  3.353942  0.547500
  N    -0.341166  0.787286  4.614435
  N    -0.903698  3.672412  4.346219
  S    -1.149159  0.301553  3.282122
  S    -1.628467  3.171164  2.884450
  S     2.079370  0.002133  0.736934
  S     1.520042  3.740690  0.247117
  S     1.260002  1.058491  4.581380
  S     0.682660  4.052455  4.304993
