16  
    
  C    -5.879377 -3.159524  1.427971
  C    -6.021805  0.889208  1.349191
  C    -7.077564 -3.343296  0.629259
  C    -7.237318  0.477594  0.669961
  N    -4.763399 -2.901079  0.738879
  N    -4.980988  1.136253  0.561917
  N    -6.774657 -3.546090 -0.653136
  N    -7.175779  0.452782 -0.673176
  N    -7.728044 -3.277485  3.128775
  N    -7.731266  0.258028  3.206494
  S    -8.500818 -3.430383  1.638709
  S    -8.602555  0.150737  1.760042
  S    -5.152721 -3.249794 -0.787206
  S    -5.575395  0.818550 -0.999980
  S    -6.090411 -2.958469  3.122489
  S    -6.152867  0.692039  3.058710
