16  
    
  C    -5.019790 -2.514064  1.895572
  C    -5.429828  1.199014  1.628061
  C    -6.318696 -2.828470  1.314354
  C    -6.720671  0.888301  0.968386
  N    -4.019676 -2.489055  1.026789
  N    -4.400603  1.061901  0.805332
  N    -6.182653 -3.198953  0.036892
  N    -6.653149  0.728767 -0.345212
  N    -6.880855 -2.248473  3.796572
  N    -7.183930  1.087879  3.485801
  S    -7.709264 -2.743782  2.419106
  S    -8.039787  0.840271  2.057414
  S    -4.606284 -3.094750 -0.394458
  S    -4.994943  0.827595 -0.727413
  S    -5.211363 -2.186902  3.612436
  S    -5.524140  1.267616  3.372941
