16  
    
  C    -0.073749 -0.404527  2.412832
  C    -0.366371  3.436572  2.610139
  C    -1.211169 -0.959365  1.824262
  C    -1.682917  3.063208  2.057262
  N     0.995871 -0.266712  1.643363
  N     0.656667  3.384048  1.752484
  N    -1.173556 -0.975165  0.516903
  N    -1.623238  3.040200  0.711356
  N    -1.901869 -0.606010  4.277222
  N    -2.028836  3.219291  4.581574
  S    -2.559366 -1.295911  2.925342
  S    -2.919202  2.909632  3.198890
  S     0.413076 -0.595044  0.068460
  S    -0.054782  3.228827  0.237886
  S    -0.353807  0.015227  4.071998
  S    -0.403957  3.620275  4.355026
