16  
    
  C    -4.465617 -2.418514  1.499218
  C    -4.346426  1.449991  1.932415
  C    -5.520189 -3.013183  0.740715
  C    -5.638949  0.977443  1.412629
  N    -3.398452 -2.060911  0.796834
  N    -3.432542  1.812581  1.048510
  N    -5.321951 -2.986605 -0.550013
  N    -5.595600  0.788853  0.112849
  N    -6.264715 -2.978326  3.178676
  N    -5.902358  0.967091  3.889630
  S    -6.967667 -3.243700  1.732292
  S    -6.778045  0.576798  2.574021
  S    -3.832942 -2.279518 -0.775835
  S    -4.079412  1.357089 -0.436294
  S    -4.728644 -2.360162  3.201935
  S    -4.461188  1.647351  3.641606
