16  
    
  C    -4.730776 -2.695822  1.512164
  C    -4.672305  1.101606  1.466826
  C    -6.007361 -3.062745  0.919310
  C    -5.908802  0.957754  0.769969
  N    -3.725665 -2.586630  0.644447
  N    -3.591837  1.165592  0.667126
  N    -5.994158 -3.009021 -0.423377
  N    -5.729589  0.783238 -0.549486
  N    -6.404906 -2.727764  3.422707
  N    -6.423967  0.739220  3.339109
  S    -7.270685 -2.957521  2.020370
  S    -7.217737  0.664916  1.852939
  S    -4.431749 -2.760530 -0.856516
  S    -4.171808  0.910452 -0.859440
  S    -4.764234 -2.489546  3.211005
  S    -4.794771  0.914789  3.241061
