16  
    
  C     2.714425  1.366497  3.699986
  C     2.885234  5.328865  3.600553
  C     1.496269  0.950317  2.976539
  C     1.732946  4.868360  2.877000
  N     3.761778  1.552371  2.906132
  N     4.001137  5.396106  2.860785
  N     1.620483  0.770077  1.664656
  N     1.904851  4.884033  1.539825
  N     1.021858  1.041921  5.574628
  N     1.146294  4.690989  5.383802
  S     0.200877  0.749716  4.144905
  S     0.309263  4.809925  3.957604
  S     3.192768  1.208525  1.292187
  S     3.531611  5.183993  1.264856
  S     2.637552  1.516033  5.444756
  S     2.674974  5.325960  5.351211
