16  
    
  C    -4.189093 -2.322116  1.652629
  C    -4.326049  1.768548  1.914625
  C    -5.418942 -2.685401  1.034692
  C    -5.464947  1.089281  1.298945
  N    -3.199265 -2.297838  0.762876
  N    -3.203549  1.709398  1.204254
  N    -5.342750 -3.052273 -0.255405
  N    -5.226651  0.704951  0.038311
  N    -5.983614 -2.168979  3.536735
  N    -6.062827  1.478238  3.697992
  S    -6.794568 -2.726285  2.173757
  S    -6.831817  0.986839  2.253620
  S    -3.782265 -2.801629 -0.726953
  S    -3.619714  0.974410 -0.258640
  S    -4.301491 -1.876570  3.343962
  S    -4.501044  2.148194  3.593341
