16  
    
  C    -5.073126 -2.541754  1.922425
  C    -5.447537  1.143756  1.625569
  C    -6.299563 -2.927805  1.304789
  C    -6.726037  1.012869  0.959342
  N    -3.991973 -2.568631  1.160105
  N    -4.369924  1.130590  0.823907
  N    -6.200976 -3.301224  0.022736
  N    -6.614622  0.764795 -0.378775
  N    -6.782209 -2.534609  3.785367
  N    -7.200297  1.056985  3.520371
  S    -7.622645 -2.740329  2.370248
  S    -7.972448  0.765389  2.116140
  S    -4.550770 -3.087025 -0.321479
  S    -4.992179  0.745327 -0.688950
  S    -5.189328 -2.162828  3.601723
  S    -5.587574  1.252933  3.410838
