16  
    
  C    -0.817021 -0.885840  2.450573
  C    -0.932685  3.052810  2.470784
  C    -1.939289 -1.348620  1.770896
  C    -2.236274  2.947926  1.823787
  N     0.293616 -0.672186  1.694477
  N     0.133042  3.021326  1.658443
  N    -1.882960 -1.273909  0.448565
  N    -2.107487  2.605566  0.542838
  N    -2.669175 -1.106956  4.243551
  N    -2.771698  3.170464  4.312801
  S    -3.295176 -1.582234  2.766044
  S    -3.564772  2.744698  2.896254
  S    -0.282121 -0.820515  0.105152
  S    -0.506996  2.770849  0.142175
  S    -1.089020 -0.528535  4.203646
  S    -1.103953  3.398940  4.178495
