16  
    
  C     1.388883  0.776399  3.365595
  C     1.194094  4.475637  3.156532
  C     0.136505  0.276606  2.850831
  C    -0.003986  3.975703  2.586594
  N     2.376608  0.916417  2.527550
  N     2.196217  4.618865  2.292394
  N     0.189467 -0.089872  1.565788
  N    -0.098852  4.113239  1.253807
  N    -0.220312  0.990361  5.387833
  N    -0.383615  4.183405  5.192011
  S    -1.112734  0.503754  3.993108
  S    -1.247567  3.808559  3.768139
  S     1.750305  0.321149  1.097057
  S     1.517731  4.412484  0.746004
  S     1.396356  1.203853  5.056015
  S     1.174401  4.601711  4.867914
