16  
    
  C    -2.521472 -1.879462  1.950852
  C    -3.076117  2.160006  1.741258
  C    -3.807056 -2.150224  1.333883
  C    -4.200830  1.613432  0.978029
  N    -1.509551 -2.003130  1.068326
  N    -2.051266  2.508698  0.968937
  N    -3.800923 -2.260964 -0.010650
  N    -4.004243  1.500367 -0.348224
  N    -4.305721 -1.748147  3.813242
  N    -4.997010  1.598739  3.516201
  S    -5.099158 -1.821361  2.402559
  S    -5.492592  0.981398  2.059532
  S    -2.217190 -2.173438 -0.416790
  S    -2.488347  2.013393 -0.623475
  S    -2.636370 -1.603431  3.666938
  S    -3.415651  2.246178  3.450847
