16  
    
  C     0.080706 -0.002112  2.643306
  C     0.034142  3.664200  2.608619
  C    -1.124505 -0.589532  2.122079
  C    -1.052385  2.845413  2.030089
  N     1.037423  0.187217  1.752165
  N     1.062279  3.826962  1.759793
  N    -1.115271 -0.665470  0.815419
  N    -0.974253  2.787712  0.697819
  N    -1.608742 -0.371245  4.643811
  N    -1.800984  3.379081  4.401910
  S    -2.434031 -0.900013  3.280194
  S    -2.371569  2.586463  3.093357
  S     0.373006 -0.178955  0.266571
  S     0.569950  3.169945  0.318834
  S    -0.160904  0.382448  4.333435
  S    -0.279157  4.054025  4.276585
