16  
    
  C    -1.316286 -0.959950  2.353913
  C    -1.606200  2.879134  2.038476
  C    -2.511184 -1.329486  1.537598
  C    -2.543892  2.022977  1.379456
  N    -0.249375 -0.720441  1.622890
  N    -0.517946  3.133647  1.276812
  N    -2.256333 -1.499209  0.247716
  N    -2.396303  1.854199  0.037779
  N    -3.277661 -1.525830  3.997857
  N    -3.339575  2.383788  3.863043
  S    -3.974069 -1.675911  2.543779
  S    -3.876256  1.638058  2.451361
  S    -0.681264 -1.022804  0.026968
  S    -0.836682  2.490229 -0.219769
  S    -1.757888 -0.860677  4.019283
  S    -1.873167  3.195737  3.714517
