16  
    
  C    -1.697987 -1.106420  2.578077
  C    -1.852357  2.491706  2.406192
  C    -2.962527 -1.372993  1.881699
  C    -3.102364  2.320809  1.788115
  N    -0.625325 -1.013279  1.807751
  N    -0.761017  2.607273  1.637958
  N    -2.793032 -1.560694  0.587051
  N    -2.993152  2.319059  0.445323
  N    -3.520830 -1.511064  4.437078
  N    -3.634585  2.345555  4.297640
  S    -4.286893 -1.807410  2.956197
  S    -4.382714  2.009283  2.866781
  S    -1.164146 -1.252359  0.251472
  S    -1.371813  2.371777  0.125148
  S    -1.932294 -0.918746  4.291299
  S    -1.993273  2.531848  4.191308
