16  
    
  C     0.007509 -0.616297  2.457167
  C    -0.193026  3.199015  2.619013
  C    -1.259062 -1.011202  1.861577
  C    -1.308243  2.607158  1.938474
  N     1.001632 -0.343167  1.600404
  N     0.699148  3.751954  1.787841
  N    -1.130409 -1.116826  0.540038
  N    -1.108950  2.276644  0.664183
  N    -1.745690 -0.878657  4.381375
  N    -1.923476  2.836455  4.432132
  S    -2.564905 -1.319745  2.984158
  S    -2.629821  2.278108  3.072786
  S     0.358911 -0.622935  0.079927
  S     0.406966  2.980368  0.321578
  S    -0.123093 -0.511855  4.142186
  S    -0.382483  3.495164  4.339940
