16  
    
  C    -2.832297 -1.508461  2.020230
  C    -3.188607  1.987695  1.876983
  C    -4.092249 -1.829803  1.406120
  C    -4.274703  1.442018  1.127687
  N    -1.840131 -1.275059  1.150512
  N    -2.031083  2.072281  1.173705
  N    -3.970593 -2.148643  0.102045
  N    -4.087543  1.326839 -0.188054
  N    -4.559075 -1.682805  3.947467
  N    -5.148781  1.748071  3.499066
  S    -5.387477 -1.943932  2.510425
  S    -5.734658  1.140753  2.079513
  S    -2.456009 -1.645319 -0.321287
  S    -2.495329  1.583523 -0.366710
  S    -3.006138 -1.221194  3.737376
  S    -3.518925  2.052845  3.568109
