16  
    
  C    -1.694081 -1.072412  2.334429
  C    -1.835080  2.354465  2.524887
  C    -2.990556 -1.402321  1.807537
  C    -3.011452  1.975417  1.766972
  N    -0.739090 -1.123668  1.444826
  N    -0.798472  2.543672  1.694692
  N    -3.016385 -1.377814  0.489563
  N    -2.843825  1.717567  0.456167
  N    -3.288794 -1.120228  4.333617
  N    -3.681955  2.122924  4.295883
  S    -4.307787 -1.359399  3.046610
  S    -4.348187  1.645815  2.840034
  S    -1.434833 -1.329375 -0.021097
  S    -1.321368  2.247813  0.148859
  S    -1.719731 -0.708818  4.039093
  S    -2.104734  2.595942  4.194370
