16  
    
  C     2.827821  1.525173  3.550929
  C     2.986682  5.148520  3.435698
  C     1.630017  0.891603  3.074629
  C     1.729985  4.772686  2.809098
  N     3.754134  1.632862  2.586033
  N     3.914711  5.622974  2.572136
  N     1.653831  0.544173  1.789002
  N     1.841018  4.639264  1.482994
  N     1.106903  1.426974  5.508314
  N     1.078424  5.098078  5.261189
  S     0.386943  0.646163  4.210561
  S     0.426208  4.344652  3.874215
  S     3.158380  1.046427  1.208694
  S     3.388886  5.208909  1.047711
  S     2.692794  1.866423  5.369067
  S     2.712477  5.372804  5.210536
