16  
    
  C    -1.475316 -0.989280  2.235473
  C    -1.730956  2.395310  2.021481
  C    -2.742879 -1.248837  1.569021
  C    -3.052517  2.111198  1.415372
  N    -0.476466 -1.108777  1.403390
  N    -0.773759  2.573114  1.129843
  N    -2.725638 -1.588078  0.313463
  N    -3.010553  1.946632  0.089848
  N    -3.186216 -1.056001  4.109490
  N    -3.417086  2.086905  3.974565
  S    -4.055864 -1.203280  2.735069
  S    -4.321690  1.874105  2.603347
  S    -1.120653 -1.491686 -0.108898
  S    -1.420481  2.143124 -0.370293
  S    -1.522820 -0.910707  3.945802
  S    -1.818710  2.604776  3.720300
