16  
    
  C    -1.775943 -1.027935  2.337911
  C    -1.867110  2.408411  2.513817
  C    -3.091599 -1.359883  1.793035
  C    -3.048098  1.934919  1.816127
  N    -0.742756 -1.087757  1.456916
  N    -0.807465  2.547533  1.738808
  N    -3.067245 -1.398765  0.441536
  N    -2.881680  1.783528  0.509370
  N    -3.324474 -1.191752  4.345679
  N    -3.696579  2.095136  4.298274
  S    -4.300555 -1.373449  3.067886
  S    -4.360902  1.624439  2.860818
  S    -1.442983 -1.354460 -0.024077
  S    -1.295299  2.243634  0.205969
  S    -1.746241 -0.693144  4.070148
  S    -2.105775  2.588014  4.248433
