16  
    
  C    -3.790375 -2.454690  1.605417
  C    -3.341762  1.678357  1.612168
  C    -5.090012 -2.360168  0.971615
  C    -4.546134  1.089433  1.016692
  N    -2.779121 -2.283814  0.800849
  N    -2.359089  1.949827  0.764732
  N    -5.070074 -2.123362 -0.346708
  N    -4.484423  0.907048 -0.285506
  N    -5.575930 -2.608235  3.514579
  N    -5.087715  1.482813  3.503592
  S    -6.451465 -2.747554  2.080724
  S    -5.890758  0.948205  2.100906
  S    -3.460554 -2.059472 -0.747602
  S    -3.019586  1.480868 -0.749233
  S    -3.924141 -2.595337  3.347342
  S    -3.561730  2.180645  3.198021
