16  
    
  C     1.206723  0.329045  3.114284
  C     1.012107  4.188703  2.572532
  C     0.020905  0.075548  2.322043
  C    -0.021033  3.518154  1.941440
  N     2.332178  0.218835  2.421648
  N     2.099903  4.319463  1.856542
  N     0.243626 -0.095247  1.021708
  N     0.282611  3.178213  0.705949
  N    -0.804863  0.406013  4.752695
  N    -0.990920  3.977652  4.271923
  S    -1.397315  0.262683  3.199652
  S    -1.502284  3.202626  2.886997
  S     1.879624  0.004525  0.894605
  S     1.761210  3.745395  0.363819
  S     0.888062  0.601946  4.764729
  S     0.609383  4.427407  4.234575
