16  
    
  C    -0.315387 -0.176467  2.554427
  C    -0.402334  3.280690  2.520740
  C    -1.467835 -0.832370  1.797984
  C    -1.574061  2.718250  2.010523
  N     0.764672 -0.008431  1.837712
  N     0.609846  3.421791  1.646380
  N    -1.225097 -1.085633  0.515173
  N    -1.571306  2.673244  0.666846
  N    -2.157669 -0.595399  4.310754
  N    -2.063836  3.207848  4.491580
  S    -2.834428 -1.000065  2.811007
  S    -2.895584  2.800781  3.110398
  S     0.391050 -0.534457  0.289719
  S     0.013946  2.989857  0.182262
  S    -0.575537 -0.090525  4.293467
  S    -0.442121  3.521846  4.266088
