16  
    
  C    -0.656853 -0.428986  2.647926
  C    -0.351662  3.295092  2.718999
  C    -1.895000 -0.847987  2.043023
  C    -1.424946  2.559293  2.057907
  N     0.314490 -0.236384  1.809559
  N     0.640572  3.673435  1.928079
  N    -1.802694 -1.195088  0.776452
  N    -1.073877  2.111970  0.849943
  N    -2.195492 -0.867930  4.662271
  N    -2.216156  3.059517  4.443061
  S    -3.092123 -0.989364  3.248046
  S    -2.831175  2.302876  3.127807
  S    -0.194914 -0.817648  0.329740
  S     0.398597  2.811019  0.518191
  S    -0.663048 -0.306974  4.387564
  S    -0.726736  3.723430  4.305583
