16  
    
  C    -0.189282  0.131268  2.556414
  C    -0.082363  3.745494  2.435058
  C    -1.388292 -0.499516  2.058008
  C    -1.150121  2.945745  1.939931
  N     0.736336  0.260729  1.646842
  N     0.993953  3.859437  1.632906
  N    -1.354520 -0.773842  0.789110
  N    -1.021457  2.647272  0.640074
  N    -1.627731 -0.384803  4.564217
  N    -1.769988  3.475598  4.362436
  S    -2.560493 -0.757392  3.235258
  S    -2.556313  2.858230  3.083193
  S     0.162468 -0.349951  0.231824
  S     0.471776  3.184420  0.212122
  S    -0.026723  0.075260  4.264268
  S    -0.197783  4.041907  4.114162
