16  
    
  C    -0.908724 -0.836965  2.343237
  C    -0.714482  3.087230  2.485240
  C    -2.044050 -1.481168  1.625859
  C    -1.921757  2.538315  1.883916
  N     0.090219 -0.632242  1.514536
  N     0.277277  3.128633  1.573251
  N    -1.843887 -1.930475  0.395421
  N    -1.892948  2.467069  0.529209
  N    -2.759398 -0.918749  4.077765
  N    -2.417059  2.724157  4.343025
  S    -3.427503 -1.489118  2.648670
  S    -3.299399  2.482819  2.984543
  S    -0.280271 -1.273199  0.025833
  S    -0.335796  2.763889  0.085947
  S    -1.239753 -0.262386  3.944647
  S    -0.862947  3.238207  4.188829
