16  
    
  C     1.823083  0.474251  3.013920
  C     1.894967  4.151600  3.259428
  C     0.545591  0.160654  2.499684
  C     0.595739  4.070941  2.630484
  N     2.793014  0.688934  2.124534
  N     2.933427  4.332091  2.454554
  N     0.542765  0.070730  1.145972
  N     0.685117  4.034991  1.311212
  N     0.266479  0.268940  5.083279
  N     0.154859  3.966124  5.221202
  S    -0.693926  0.155386  3.702016
  S    -0.704496  3.928211  3.790959
  S     2.044210  0.424276  0.672938
  S     2.235970  4.231206  0.981779
  S     1.807239  0.637822  4.752560
  S     1.801557  4.212511  5.027682
