16  
    
  C    -2.190936 -0.856414  2.316647
  C    -2.114329  2.466707  1.956772
  C    -3.396808 -1.220250  1.604232
  C    -3.322402  1.965774  1.409911
  N    -1.115016 -0.780084  1.517830
  N    -1.108880  2.553528  1.106410
  N    -3.210970 -1.633399  0.308651
  N    -3.322429  1.770092  0.087092
  N    -3.889616 -1.210161  4.182518
  N    -3.829692  2.353269  3.882965
  S    -4.757442 -1.256003  2.742185
  S    -4.682987  1.935458  2.532469
  S    -1.578500 -1.329558 -0.007689
  S    -1.761002  2.060899 -0.380136
  S    -2.310274 -0.718294  4.019735
  S    -2.207314  2.558086  3.670369
