16  
    
  C     0.666591  0.178747  3.096814
  C     0.705591  3.884967  2.951685
  C    -0.640155  0.138181  2.428637
  C    -0.536457  3.533317  2.275184
  N     1.688996  0.213722  2.256085
  N     1.694808  3.992225  2.108484
  N    -0.606005 -0.013712  1.109144
  N    -0.420087  3.260408  0.977950
  N    -1.115924  0.203823  5.002878
  N    -1.053644  3.703714  4.795805
  S    -1.965466  0.161985  3.563382
  S    -1.774083  3.182123  3.446361
  S     1.037639  0.066485  0.726299
  S     1.188020  3.492861  0.625057
  S     0.535425  0.519683  4.859355
  S     0.510249  4.272575  4.627148
