16  
    
  C    -0.858230 -0.569278  2.420253
  C    -0.566786  3.186781  2.873273
  C    -2.187588 -0.981836  1.790760
  C    -1.795631  2.911137  2.203227
  N     0.168936 -0.531302  1.583148
  N     0.454555  3.201458  2.016886
  N    -2.118166 -1.116948  0.496985
  N    -1.683642  2.453265  0.945241
  N    -2.771144 -0.697584  4.236930
  N    -2.418285  3.187958  4.750535
  S    -3.585738 -1.194574  2.868899
  S    -3.144744  2.747876  3.258436
  S    -0.458413 -0.973529  0.077056
  S    -0.114811  2.764181  0.551776
  S    -1.120665 -0.467287  4.128891
  S    -0.774173  3.647552  4.539299
