16  
    
  C     2.436880  1.092417  3.360685
  C     2.858967  5.462909  3.878878
  C     1.314023  0.640495  2.575243
  C     1.762948  4.668791  3.388267
  N     3.535758  1.202266  2.635003
  N     3.900359  5.544646  3.038579
  N     1.526820  0.369606  1.292186
  N     1.816039  4.337266  2.089654
  N     0.524805  1.003930  4.981494
  N     1.175798  5.386810  5.809993
  S    -0.056123  0.505212  3.580853
  S     0.411889  4.795090  4.398840
  S     3.141945  0.776165  1.069259
  S     3.369488  4.745570  1.662715
  S     2.108312  1.384258  5.037939
  S     2.816622  5.741101  5.548409
