16  
    
  C    -1.683391 -1.093484  2.069166
  C    -1.742614  2.428755  1.956527
  C    -2.978920 -1.238820  1.541291
  C    -2.981760  1.969845  1.287848
  N    -0.677332 -0.985091  1.151798
  N    -0.655291  2.484077  1.167031
  N    -2.967835 -1.563180  0.234918
  N    -2.788668  1.826092 -0.020438
  N    -3.428921 -1.029912  4.088065
  N    -3.584138  2.049474  3.748145
  S    -4.258233 -1.179974  2.650523
  S    -4.370594  1.949454  2.310174
  S    -1.400324 -1.391997 -0.263126
  S    -1.223918  2.147692 -0.371161
  S    -1.773448 -0.958390  3.850049
  S    -1.940122  2.362368  3.682852
