16  
    
  C     1.388336  0.649891  3.092592
  C     1.076478  4.234636  2.828829
  C     0.117694  0.234120  2.492151
  C    -0.138977  3.826660  2.039229
  N     2.393958  0.828947  2.261971
  N     2.162100  4.649731  2.111456
  N     0.139924  0.112033  1.180518
  N     0.149834  3.598290  0.758140
  N    -0.358060  0.722060  4.962029
  N    -0.857061  3.856663  4.474438
  S    -1.138471  0.176510  3.638973
  S    -1.465881  3.327615  2.994697
  S     1.693466  0.492678  0.732064
  S     1.698497  4.202240  0.516469
  S     1.249070  1.002481  4.839544
  S     0.668082  4.349718  4.483997
