16  
    
  C    -5.386912 -2.812123  1.536577
  C    -5.539023  1.074618  1.324711
  C    -6.670825 -3.036487  0.840403
  C    -6.667337  0.497676  0.629106
  N    -4.354838 -2.695993  0.727435
  N    -4.462090  1.342251  0.573411
  N    -6.527630 -3.274603 -0.472594
  N    -6.558900  0.385334 -0.692999
  N    -7.142399 -3.140618  3.392111
  N    -7.256246  0.560956  3.174242
  S    -7.954198 -3.556719  1.952003
  S    -7.952991  0.065775  1.758568
  S    -4.894672 -2.995821 -0.832351
  S    -4.976325  0.922545 -1.008623
  S    -5.570940 -2.589931  3.276693
  S    -5.740191  1.168035  3.061121
