16  
    
  C    -4.711473 -2.657888  1.520460
  C    -4.721167  0.873823  1.442207
  C    -6.012681 -2.859288  0.997460
  C    -5.939280  0.622750  0.731712
  N    -3.723843 -2.526531  0.624774
  N    -3.647296  0.943661  0.653416
  N    -5.995520 -3.141587 -0.306249
  N    -5.879813  0.662427 -0.590141
  N    -6.342859 -2.545732  3.496092
  N    -6.516986  0.916535  3.204490
  S    -7.234341 -3.030864  2.166882
  S    -7.259950  0.554245  1.746075
  S    -4.433498 -3.007679 -0.777645
  S    -4.205390  1.004434 -0.912975
  S    -4.729124 -2.470321  3.266694
  S    -4.915279  1.129977  3.155387
