16  
    
  C    -4.228588 -2.208076  2.089590
  C    -4.150054  1.384429  1.933700
  C    -5.542962 -2.396519  1.472629
  C    -5.379112  1.163866  1.222779
  N    -3.241811 -2.066602  1.199847
  N    -3.109529  1.424075  1.114114
  N    -5.520730 -2.434188  0.156284
  N    -5.284261  1.042271 -0.101436
  N    -5.904935 -1.995364  4.012576
  N    -6.018393  1.421503  3.805738
  S    -6.800731 -2.468130  2.658074
  S    -6.774574  1.133005  2.332849
  S    -3.979022 -2.157070 -0.282687
  S    -3.719252  1.193286 -0.444365
  S    -4.226994 -1.815170  3.782789
  S    -4.356774  1.600622  3.640539
