16  
    
  C    -2.096524 -0.915019  2.302540
  C    -1.959917  2.245588  2.054725
  C    -3.321179 -1.325321  1.669442
  C    -3.223321  1.972515  1.339342
  N    -1.052570 -0.961787  1.510738
  N    -0.971095  2.374849  1.181833
  N    -3.310079 -1.367503  0.357188
  N    -3.142027  1.777483  0.026998
  N    -3.846904 -1.108905  4.127402
  N    -3.789429  2.388091  3.811409
  S    -4.713000 -1.217792  2.718975
  S    -4.553299  1.798316  2.472114
  S    -1.727049 -1.260737 -0.026867
  S    -1.554513  2.136546 -0.350299
  S    -2.269579 -0.632033  3.989408
  S    -2.142477  2.478269  3.757838
