16  
    
  C    -2.976561 -1.656307  1.961848
  C    -2.596820  2.099074  2.007043
  C    -4.126875 -2.147751  1.253042
  C    -3.821810  1.738656  1.393845
  N    -1.913778 -1.285523  1.224095
  N    -1.553891  2.153747  1.182569
  N    -3.867092 -2.301813 -0.061000
  N    -3.744114  1.661397  0.070140
  N    -4.752980 -2.241720  3.765979
  N    -4.353639  2.160503  3.910339
  S    -5.433081 -2.613970  2.331031
  S    -5.213483  2.040103  2.449485
  S    -2.319274 -1.750576 -0.331392
  S    -2.134442  1.920282 -0.340443
  S    -3.151669 -1.644168  3.696557
  S    -2.671221  2.382942  3.720515
