16  
    
  C    -1.985699 -1.070137  2.262271
  C    -2.299972  2.496419  1.928964
  C    -3.160548 -1.588296  1.614759
  C    -3.552883  2.056230  1.424540
  N    -0.959196 -0.822756  1.421299
  N    -1.305294  2.526810  1.040951
  N    -3.052829 -1.716155  0.289828
  N    -3.560408  1.803490  0.124377
  N    -3.888134 -1.072031  4.006195
  N    -3.954553  2.392465  3.897686
  S    -4.569297 -1.587141  2.584230
  S    -4.867543  2.015991  2.588189
  S    -1.528385 -1.257959 -0.118763
  S    -2.022457  2.120309 -0.387771
  S    -2.227403 -0.804747  4.016469
  S    -2.378810  2.808048  3.622652
