16  
    
  C    -4.246554 -1.933970  1.870943
  C    -4.128495  1.638471  1.877268
  C    -5.437772 -2.371702  1.244919
  C    -5.342808  0.978278  1.354210
  N    -3.219354 -1.750567  1.025593
  N    -3.214099  1.693910  0.907260
  N    -5.305342 -2.844723  0.007882
  N    -5.315237  0.574629  0.092404
  N    -6.007727 -2.189230  3.792929
  N    -5.925137  1.777730  3.840226
  S    -6.817587 -2.282538  2.346095
  S    -6.652661  0.954750  2.574566
  S    -3.749232 -2.376580 -0.406895
  S    -3.802459  1.061586 -0.470568
  S    -4.493400 -1.485627  3.512947
  S    -4.251006  1.919565  3.620293
