16  
    
  C    -3.138688 -1.802662  1.827914
  C    -3.577839  1.629725  2.068427
  C    -4.366272 -2.350745  1.297004
  C    -4.690669  1.111503  1.377051
  N    -2.097416 -1.669153  1.028656
  N    -2.480360  1.786129  1.350531
  N    -4.243261 -2.669149  0.002997
  N    -4.425713  0.782065  0.116216
  N    -4.801332 -2.038843  3.780395
  N    -5.505796  1.442830  3.856518
  S    -5.550556 -2.689004  2.466147
  S    -6.117776  0.992787  2.388874
  S    -2.701508 -2.254709 -0.445888
  S    -2.815899  1.231498 -0.177042
  S    -3.261610 -1.449794  3.526749
  S    -3.943354  1.927260  3.743294
