16  
    
  C     2.373729  0.894438  3.515401
  C     1.968164  4.889985  3.044756
  C     1.060518  0.684544  2.918092
  C     0.823478  4.353707  2.317542
  N     3.347184  0.912505  2.607203
  N     2.961881  5.275353  2.221057
  N     1.019211  0.530840  1.595071
  N     1.078270  3.905501  1.045780
  N     0.628397  0.897355  5.374495
  N     0.177785  4.393302  4.952307
  S    -0.216607  0.596435  4.051357
  S    -0.554128  4.152593  3.378946
  S     2.660175  0.606453  1.086716
  S     2.525507  4.693848  0.681846
  S     2.255760  1.039624  5.280913
  S     1.728494  5.124719  4.798803
