16  
    
  C    -0.768080 -0.879615  2.408654
  C    -0.881423  3.107166  2.454775
  C    -1.972000 -1.207481  1.768278
  C    -2.136997  2.704711  1.826801
  N     0.339580 -0.610923  1.669267
  N     0.136830  3.133826  1.610264
  N    -1.791217 -1.447605  0.449018
  N    -2.062228  2.673035  0.505755
  N    -2.677913 -0.918634  4.162211
  N    -2.624440  2.978463  4.394247
  S    -3.335679 -1.646038  2.793200
  S    -3.418316  2.670319  2.965397
  S    -0.201875 -0.999048  0.114757
  S    -0.472921  2.814292  0.106804
  S    -1.095842 -0.577921  4.107890
  S    -1.007402  3.386014  4.180500
