16  
    
  C    -0.024369 -0.626465  2.522342
  C    -0.142609  3.416067  2.572082
  C    -1.265175 -1.075853  1.808951
  C    -1.096087  2.535272  2.014235
  N     0.870313 -0.163451  1.662812
  N     0.889332  3.672267  1.789850
  N    -1.113418 -1.204138  0.490901
  N    -0.899364  2.253724  0.737878
  N    -1.799195 -0.954371  4.377238
  N    -1.929245  2.836370  4.413687
  S    -2.549850 -1.315422  2.913139
  S    -2.565577  2.322834  2.931388
  S     0.351316 -0.547063  0.174478
  S     0.428333  3.127212  0.270354
  S    -0.209976 -0.528447  4.303849
  S    -0.391612  3.479195  4.296440
