16  
    
  C     1.597554  0.828534  3.252934
  C     2.034739  4.578907  3.246702
  C     0.543507  0.197326  2.494885
  C     0.868735  3.975907  2.679841
  N     2.617337  1.184946  2.527712
  N     3.091211  4.669579  2.391737
  N     0.850578  0.073720  1.187347
  N     0.921778  3.972839  1.337573
  N    -0.208148  0.392844  4.970790
  N     0.251504  4.323159  5.199706
  S    -0.896881 -0.075645  3.516447
  S    -0.533511  3.756515  3.858383
  S     2.357259  0.732605  0.960733
  S     2.446282  4.276212  0.920989
  S     1.263041  1.048979  4.984610
  S     1.838318  4.945934  4.955137
