16  
    
  C    -2.152402 -0.830563  2.255276
  C    -2.178411  2.441042  1.946512
  C    -3.307557 -1.401557  1.674498
  C    -3.482991  2.101806  1.356513
  N    -1.052122 -0.785363  1.480848
  N    -1.256713  2.606454  1.012561
  N    -3.139382 -1.677327  0.376253
  N    -3.421930  1.729010  0.067649
  N    -3.899607 -1.163291  4.085336
  N    -3.871102  2.367636  3.916918
  S    -4.700528 -1.340165  2.667988
  S    -4.719173  1.979141  2.548477
  S    -1.575657 -1.306419  0.011215
  S    -1.856817  2.050233 -0.397808
  S    -2.290285 -0.777067  3.999485
  S    -2.253089  2.649116  3.714478
