16  
    
  C    -0.341497 -0.408574  2.596376
  C    -0.378074  3.204608  2.589577
  C    -1.542585 -0.779374  1.892096
  C    -1.624143  2.871619  1.938332
  N     0.696924 -0.143617  1.841608
  N     0.673422  3.328424  1.774892
  N    -1.264027 -0.928037  0.619539
  N    -1.480514  2.490965  0.645672
  N    -2.280510 -0.558147  4.341882
  N    -2.076320  3.237335  4.469566
  S    -3.001848 -0.995686  2.914319
  S    -2.887844  2.588741  3.148148
  S     0.255491 -0.490746  0.277967
  S     0.087199  2.942130  0.247540
  S    -0.655088 -0.068528  4.240801
  S    -0.492367  3.652400  4.279053
