16  
    
  C    -0.580218 -0.292438  2.609093
  C    -0.398130  3.422948  2.654838
  C    -1.819262 -0.756358  2.033652
  C    -1.441096  2.540155  2.094094
  N     0.482454 -0.264866  1.808922
  N     0.696144  3.483419  1.904330
  N    -1.773343 -0.906666  0.728119
  N    -1.129050  2.151980  0.861451
  N    -2.270571 -0.769314  4.553252
  N    -2.264858  3.087250  4.485070
  S    -3.173280 -1.026291  3.179431
  S    -2.781909  2.288925  3.102411
  S    -0.170539 -0.717016  0.332689
  S     0.348057  2.801211  0.450202
  S    -0.719177 -0.199255  4.351536
  S    -0.690809  3.765555  4.347579
