16  
    
  C    -5.324181 -2.656835  1.338135
  C    -5.441047  1.085082  1.304849
  C    -6.593092 -3.050564  0.787438
  C    -6.552789  0.465720  0.606920
  N    -4.393778 -2.309505  0.472696
  N    -4.397380  1.411628  0.530265
  N    -6.589712 -3.330197 -0.526337
  N    -6.404227  0.458921 -0.721655
  N    -6.878954 -3.097414  3.330056
  N    -7.144399  0.471435  3.063616
  S    -7.739033 -3.467949  1.976657
  S    -7.943482  0.134650  1.645679
  S    -5.024873 -2.841174 -1.000527
  S    -4.937052  1.148521 -1.052395
  S    -5.361768 -2.516832  3.036200
  S    -5.697607  1.178195  2.975245
