16  
    
  C    -4.822511 -2.279290  1.730531
  C    -4.905066  0.982419  1.780222
  C    -6.008672 -2.861837  1.165828
  C    -6.058951  0.438052  1.091204
  N    -3.823672 -2.088827  0.847826
  N    -3.894042  1.302967  0.957156
  N    -5.947487 -2.959152 -0.174447
  N    -5.878979  0.181481 -0.204340
  N    -6.408735 -2.753584  3.736133
  N    -6.768464  0.946503  3.457882
  S    -7.194487 -3.228686  2.391865
  S    -7.309041  0.118173  2.153241
  S    -4.390218 -2.618921 -0.622771
  S    -4.350387  0.852143 -0.569911
  S    -4.876306 -2.193092  3.493638
  S    -5.246642  1.501913  3.391938
