16  
    
  C     2.439034  1.133942  3.331669
  C     2.850152  5.277093  3.862698
  C     1.301699  0.640055  2.576060
  C     1.647443  4.706460  3.299643
  N     3.591448  1.282843  2.709112
  N     3.814544  5.455874  2.992401
  N     1.604758  0.360881  1.308380
  N     1.883728  4.158959  2.104260
  N     0.538971  0.934901  5.047244
  N     1.221095  5.210506  5.785763
  S    -0.111503  0.485172  3.579171
  S     0.351090  4.756428  4.455355
  S     3.196258  0.783248  1.122998
  S     3.371976  4.764687  1.583901
  S     2.152733  1.389704  5.004273
  S     2.803178  5.730047  5.527229
