16  
    
  C     2.293881  0.817492  3.527481
  C     1.904540  5.141519  3.112740
  C     0.995470  0.570012  2.945503
  C     0.839877  4.492504  2.389789
  N     3.330045  0.865862  2.681070
  N     3.110748  5.211989  2.478404
  N     1.014079  0.460441  1.597813
  N     1.101963  4.436158  1.076288
  N     0.592177  0.970651  5.541360
  N     0.041486  4.762504  4.792320
  S    -0.251059  0.625989  4.116759
  S    -0.527828  4.141583  3.408127
  S     2.618968  0.660818  1.158377
  S     2.677914  4.898834  0.896573
  S     2.258572  1.149142  5.218131
  S     1.536840  5.271354  4.824549
