16  
    
  C    -2.992060 -1.799889  2.159204
  C    -3.328844  1.561998  2.054461
  C    -4.267965 -2.033409  1.513547
  C    -4.622829  1.301081  1.525526
  N    -2.022084 -1.960321  1.294733
  N    -2.384183  1.784672  1.147595
  N    -4.224443 -2.005247  0.163870
  N    -4.645824  1.212765  0.208569
  N    -4.672472 -1.968952  4.097375
  N    -4.997451  1.584664  4.027218
  S    -5.556506 -2.096460  2.718303
  S    -5.846739  1.117471  2.670083
  S    -2.586683 -1.979311 -0.224640
  S    -3.130059  1.510135 -0.275488
  S    -3.035921 -1.627304  3.885429
  S    -3.366111  1.764394  3.719821
