16  
    
  C    -2.011397 -1.125436  2.262426
  C    -1.840772  2.198647  2.045361
  C    -3.279754 -1.231395  1.610272
  C    -3.093909  1.889482  1.365191
  N    -1.054253 -1.068533  1.373093
  N    -0.803775  2.347491  1.213510
  N    -3.285380 -1.418369  0.308913
  N    -2.996273  1.913994  0.046445
  N    -3.824108 -0.941185  4.157541
  N    -3.787487  2.345696  3.813749
  S    -4.654326 -1.225092  2.751795
  S    -4.474959  1.743281  2.401008
  S    -1.684556 -1.176397 -0.126522
  S    -1.410698  2.120275 -0.310935
  S    -2.171395 -0.667996  3.976629
  S    -2.119436  2.421326  3.744337
