16  
    
  C     1.431952  0.971812  3.392980
  C     1.400005  4.512147  3.307105
  C     0.170476  0.606426  2.815355
  C     0.017556  4.231443  2.868718
  N     2.444105  0.855054  2.549711
  N     2.217737  4.835057  2.274828
  N     0.266629  0.292343  1.510029
  N    -0.001797  3.925947  1.575040
  N    -0.239404  0.893842  5.311038
  N    -0.076406  4.431390  5.417630
  S    -1.057917  0.426246  3.970709
  S    -1.107873  4.106486  4.153689
  S     1.883609  0.338581  1.118516
  S     1.470123  4.296005  0.934984
  S     1.375022  1.286942  5.124266
  S     1.457774  4.660439  5.052095
