16  
    
  C     2.679584  1.087098  3.189704
  C     2.608738  4.943979  3.569956
  C     1.419742  0.722513  2.541220
  C     1.407945  4.319416  3.026936
  N     3.700013  1.148065  2.320147
  N     3.504417  5.270458  2.639812
  N     1.553907  0.547426  1.247941
  N     1.577098  3.908984  1.768942
  N     0.750116  0.978723  4.889592
  N     0.880608  4.672896  5.522908
  S     0.050421  0.346763  3.550747
  S     0.029023  4.247961  4.065417
  S     3.139870  0.772569  0.844469
  S     2.893231  4.682239  1.220855
  S     2.395174  1.323960  4.907994
  S     2.465358  5.286320  5.302640
