16  
    
  C    -1.060403 -0.395357  2.418362
  C    -1.112889  3.093551  2.417774
  C    -2.116806 -1.034536  1.726098
  C    -2.368750  2.787187  1.769614
  N    -0.046896 -0.159768  1.658015
  N    -0.075731  3.078378  1.573675
  N    -2.025953 -1.163388  0.412299
  N    -2.319272  2.489805  0.473851
  N    -2.797759 -1.019650  4.232750
  N    -2.942427  3.165283  4.190751
  S    -3.474165 -1.449499  2.736700
  S    -3.766229  3.038215  2.789979
  S    -0.482933 -0.595369  0.085368
  S    -0.703683  2.666037  0.070847
  S    -1.205060 -0.507633  4.160258
  S    -1.312726  3.268434  4.117296
