16  
    
  C    -0.274374 -0.139277  2.534419
  C    -0.279708  3.215723  2.556505
  C    -1.316262 -0.787629  1.845409
  C    -1.596679  2.953726  1.976410
  N     0.768069  0.057827  1.752503
  N     0.624626  3.551384  1.610081
  N    -1.068159 -1.082200  0.560991
  N    -1.587701  2.636875  0.670923
  N    -2.106625 -0.645979  4.264595
  N    -2.033763  3.180869  4.514332
  S    -2.700496 -1.029301  2.797992
  S    -2.923153  2.908687  3.099973
  S     0.446125 -0.594672  0.248325
  S    -0.083808  3.039342  0.146263
  S    -0.535669 -0.098409  4.265999
  S    -0.403372  3.429063  4.252009
