16  
    
  C     0.797745 -0.112298  2.787442
  C     0.414755  3.498607  2.967263
  C    -0.530507 -0.335070  2.224317
  C    -0.831976  3.477130  2.310901
  N     1.795371 -0.160385  1.902858
  N     1.433622  3.657966  2.127564
  N    -0.554939 -0.191277  0.900274
  N    -0.831031  3.578697  0.987795
  N    -0.847988 -0.290643  4.719201
  N    -1.276204  3.064069  4.838629
  S    -1.778976 -0.625094  3.375529
  S    -2.126218  3.000719  3.363938
  S     1.014815 -0.128427  0.461096
  S     0.767196  3.939046  0.618708
  S     0.813945 -0.060226  4.519729
  S     0.334822  3.388724  4.713848
