16  
    
  C     3.182617  1.633117  3.692006
  C     3.140810  5.191943  3.436820
  C     2.006220  1.143761  3.028783
  C     2.040501  4.552040  2.752012
  N     4.198164  1.702728  2.853125
  N     4.189602  5.364018  2.642773
  N     2.137401  0.797327  1.752670
  N     2.141603  4.431213  1.427786
  N     1.412250  1.450408  5.477204
  N     1.346844  4.769773  5.167118
  S     0.668599  1.068033  4.073643
  S     0.643078  4.254550  3.715578
  S     3.710232  1.118664  1.355666
  S     3.695939  4.868956  1.073518
  S     2.953691  2.053743  5.349243
  S     2.900303  5.375510  5.150458
