16  
    
  C    -4.609758 -2.147272  1.502052
  C    -4.413663  1.314202  1.984773
  C    -5.672744 -2.737853  0.735021
  C    -5.611483  0.818309  1.319074
  N    -3.544345 -1.795603  0.769377
  N    -3.581431  1.787793  1.086134
  N    -5.425000 -2.809529 -0.541208
  N    -5.585047  0.693708  0.014908
  N    -6.433457 -2.940484  3.194615
  N    -5.945240  0.862952  3.806197
  S    -7.031622 -3.306361  1.746887
  S    -6.770821  0.384269  2.497175
  S    -3.949798 -2.170009 -0.832955
  S    -4.137677  1.447774 -0.424574
  S    -4.893539 -2.446235  3.185360
  S    -4.407198  1.477877  3.669567
