16  
    
  C    -5.311570 -2.248386  1.692810
  C    -5.365194  1.295098  1.415885
  C    -6.544374 -2.645594  1.062874
  C    -6.582323  0.901578  0.858097
  N    -4.268240 -2.234851  0.900045
  N    -4.341369  1.204290  0.594463
  N    -6.455849 -2.946338 -0.213849
  N    -6.488558  0.698494 -0.453011
  N    -6.999319 -2.495352  3.618469
  N    -7.109267  1.090166  3.370674
  S    -7.794039 -2.755783  2.173695
  S    -7.914461  0.776529  1.964976
  S    -4.885668 -2.601621 -0.632119
  S    -4.927206  0.737440 -0.838101
  S    -5.464843 -1.940758  3.410360
  S    -5.475799  1.320173  3.136235
