16  
    
  C    -2.671079 -1.849356  1.974190
  C    -2.955869  2.158324  1.792202
  C    -3.894573 -2.092378  1.265737
  C    -4.090332  1.553103  1.086957
  N    -1.613152 -1.877202  1.157995
  N    -1.948936  2.586507  1.049201
  N    -3.785497 -2.189359 -0.071338
  N    -3.878333  1.505768 -0.221650
  N    -4.496495 -1.847074  3.803913
  N    -4.841327  1.672453  3.597500
  S    -5.238752 -2.028704  2.346220
  S    -5.471311  1.331358  2.083636
  S    -2.117721 -2.197730 -0.356235
  S    -2.466478  2.298683 -0.512819
  S    -2.823291 -1.745561  3.710185
  S    -3.287630  2.324362  3.485978
