16  
    
  C     0.859148  0.225201  2.873920
  C     0.508657  3.725149  2.920788
  C    -0.340117 -0.251225  2.278926
  C    -0.785982  3.442564  2.407103
  N     1.880998  0.368531  2.037367
  N     1.503527  3.879790  2.014319
  N    -0.265207 -0.463369  0.953171
  N    -0.867850  3.738513  1.095982
  N    -0.869379  0.088344  4.833313
  N    -1.075051  3.402558  4.943196
  S    -1.666443 -0.173593  3.405467
  S    -2.091508  3.337832  3.571411
  S     1.320721 -0.049882  0.491649
  S     0.697509  3.865448  0.550794
  S     0.720914  0.420712  4.668431
  S     0.508939  3.467286  4.696828
