16  
    
  C    -4.679011 -2.482524  1.720216
  C    -4.838777  1.164786  1.613644
  C    -5.974376 -2.881506  1.166279
  C    -5.940978  0.468255  1.015822
  N    -3.761258 -2.218362  0.785991
  N    -3.816632  1.400004  0.774051
  N    -5.913501 -3.124834 -0.127947
  N    -5.742468  0.299736 -0.274556
  N    -6.356538 -2.679188  3.653269
  N    -6.685564  0.851341  3.402095
  S    -7.221441 -3.111695  2.329939
  S    -7.322790  0.140840  2.063663
  S    -4.478912 -2.587177 -0.675629
  S    -4.254724  0.876195 -0.723085
  S    -4.789454 -2.143873  3.426179
  S    -5.110482  1.401439  3.334957
