16  
    
  C    -1.297428 -0.936958  2.196150
  C    -1.517275  2.972051  1.986964
  C    -2.501931 -1.265685  1.523326
  C    -2.573262  2.272246  1.357004
  N    -0.259282 -0.714613  1.356419
  N    -0.556383  3.371772  1.193421
  N    -2.384400 -1.439308  0.194734
  N    -2.404396  2.160118  0.058778
  N    -3.134923 -1.090165  3.996807
  N    -3.296714  2.573901  3.810955
  S    -3.849832 -1.668576  2.555596
  S    -3.866815  1.842032  2.436877
  S    -0.848556 -0.989924 -0.163601
  S    -0.940399  2.795811 -0.329743
  S    -1.496606 -0.773211  3.881148
  S    -1.867038  3.396082  3.678200
