16  
    
  C    -3.990215 -1.869741  1.712629
  C    -3.603041  1.829608  1.797291
  C    -5.146796 -2.389587  1.069447
  C    -4.875408  1.428479  1.207838
  N    -2.943617 -1.697814  0.917937
  N    -2.662303  2.262076  0.945058
  N    -5.052302 -2.525376 -0.289920
  N    -4.753539  1.357843 -0.113767
  N    -5.763591 -2.185003  3.605849
  N    -5.276689  1.269426  3.752879
  S    -6.392659 -2.832192  2.236492
  S    -6.180432  1.175350  2.330608
  S    -3.493116 -2.113177 -0.615504
  S    -3.308896  1.937173 -0.574575
  S    -4.131504 -1.791297  3.463176
  S    -3.744362  2.024591  3.542860
