16  
    
  C     0.074457 -0.642800  2.435754
  C    -0.222289  3.160234  2.672523
  C    -1.204188 -0.928099  1.874188
  C    -1.416442  2.520097  2.050293
  N     1.088402 -0.566944  1.590168
  N     0.713711  3.281868  1.731098
  N    -1.209315 -1.151879  0.594065
  N    -1.442679  2.583390  0.716902
  N    -1.693202 -0.795041  4.389775
  N    -1.907885  2.869062  4.589099
  S    -2.523383 -1.253764  3.050525
  S    -2.683650  2.303980  3.174689
  S     0.407174 -0.906571  0.082894
  S     0.109446  2.926181  0.246241
  S    -0.075649 -0.356757  4.169007
  S    -0.344496  3.471616  4.375793
