16  
    
  C    -5.727989 -3.163262  1.604580
  C    -6.053881  0.736885  1.354064
  C    -6.931019 -3.409511  0.814782
  C    -7.233454  0.149664  0.844517
  N    -4.635222 -2.907462  0.887988
  N    -5.193880  1.255208  0.466017
  N    -6.725113 -3.631705 -0.488137
  N    -7.222482  0.143478 -0.483175
  N    -7.798038 -3.081095  3.202008
  N    -7.700859  0.258358  3.386286
  S    -8.416424 -3.457409  1.708680
  S    -8.456981 -0.248138  1.996074
  S    -5.092313 -3.296305 -0.733517
  S    -5.852568  0.978247 -1.062936
  S    -6.109333 -3.027754  3.344598
  S    -6.144985  0.880132  3.095637
