16  
    
  C    -4.549368 -2.299718  1.502847
  C    -4.385591  1.405926  1.905384
  C    -5.595593 -2.873370  0.724742
  C    -5.568853  0.741572  1.347190
  N    -3.530420 -1.827521  0.775286
  N    -3.464122  1.778490  0.986366
  N    -5.414965 -2.911305 -0.587126
  N    -5.583512  0.744087  0.011019
  N    -6.373234 -2.993384  3.217048
  N    -5.934100  0.862956  3.984524
  S    -7.031621 -3.273616  1.665648
  S    -6.817687  0.473724  2.574468
  S    -3.881677 -2.201484 -0.796911
  S    -4.119170  1.459240 -0.510909
  S    -4.794152 -2.406488  3.247772
  S    -4.438573  1.563350  3.724056
