16  
    
  C     1.480163  0.968034  3.285399
  C     1.655952  4.462528  3.402727
  C     0.283570  0.427556  2.651816
  C     0.297178  4.165288  2.908434
  N     2.423602  1.170514  2.366967
  N     2.618686  4.323506  2.503152
  N     0.397394  0.176023  1.370843
  N     0.289088  4.007954  1.577940
  N    -0.313129  0.838524  5.187241
  N    -0.068968  4.683114  5.434162
  S    -1.094031  0.534737  3.722105
  S    -1.043411  4.203180  4.102687
  S     1.894026  0.702070  0.889695
  S     1.807188  4.074523  1.082152
  S     1.364459  1.338531  4.993531
  S     1.569933  4.870037  5.121771
