16  
    
  C    -1.279960 -0.822110  2.115580
  C    -1.524996  3.091259  1.991492
  C    -2.508495 -1.421953  1.529665
  C    -2.605436  2.367092  1.341657
  N    -0.244495 -0.640956  1.238245
  N    -0.561674  3.516872  1.179268
  N    -2.431471 -1.463660  0.196915
  N    -2.393784  2.102653  0.041796
  N    -3.095926 -1.020683  4.003012
  N    -3.245481  2.647722  3.816402
  S    -3.825065 -1.622804  2.644866
  S    -3.887814  1.957826  2.432927
  S    -0.892375 -0.992316 -0.281316
  S    -0.945641  2.926633 -0.323189
  S    -1.438847 -0.774222  3.841984
  S    -1.779403  3.428674  3.715097
