16  
    
  C     2.089205  0.822317  3.079519
  C     2.158902  4.491014  3.064862
  C     0.779987  0.681905  2.434768
  C     0.999095  4.000000  2.329156
  N     3.114330  0.565045  2.287260
  N     3.204011  4.633726  2.234281
  N     0.873792  0.427040  1.120759
  N     1.238882  3.565259  1.079156
  N     0.228278  1.062262  4.968416
  N     0.299016  4.427301  4.731521
  S    -0.537591  0.561792  3.542543
  S    -0.417360  3.972883  3.308231
  S     2.427032  0.221466  0.826452
  S     2.753847  4.033104  0.748097
  S     1.968986  1.184286  4.766802
  S     1.877320  4.821636  4.783970
