16  
    
  C    -1.755586 -1.142158  2.487948
  C    -1.917371  2.409516  2.564539
  C    -3.024060 -1.441478  1.857602
  C    -3.076644  2.053479  1.857425
  N    -0.793738 -0.892164  1.614785
  N    -0.869924  2.593507  1.770556
  N    -2.931370 -1.630931  0.570697
  N    -2.986374  1.998287  0.502152
  N    -3.611060 -1.201284  4.304940
  N    -3.695839  2.131920  4.387526
  S    -4.420154 -1.697532  2.878625
  S    -4.459721  1.981232  2.943803
  S    -1.390427 -1.255071  0.136272
  S    -1.435097  2.475599  0.211014
  S    -1.943152 -0.882186  4.155439
  S    -2.068767  2.450537  4.302998
