16  
    
  C    -4.072720 -2.271604  1.759375
  C    -4.053016  1.413207  1.682833
  C    -5.368722 -2.346841  1.200082
  C    -5.369523  1.281585  1.009030
  N    -3.082136 -2.237251  0.858705
  N    -2.957981  1.312300  0.910367
  N    -5.430689 -2.407964 -0.114828
  N    -5.210415  1.125040 -0.291642
  N    -5.727724 -1.822328  3.706632
  N    -5.890788  1.587188  3.577207
  S    -6.579677 -2.284030  2.378650
  S    -6.720682  1.321765  2.111190
  S    -3.833230 -2.260308 -0.614390
  S    -3.541050  1.121206 -0.691250
  S    -4.073819 -1.826629  3.437463
  S    -4.242489  1.677193  3.370529
