16  
    
  C     1.057355  0.276273  2.942412
  C     0.449506  3.713116  2.841241
  C    -0.137507 -0.197672  2.251679
  C    -0.621268  3.049918  2.078557
  N     2.093001  0.594386  2.174949
  N     1.519834  3.950229  2.101565
  N    -0.042050 -0.115746  0.912413
  N    -0.321801  2.937076  0.776054
  N    -0.803379 -0.269301  4.736215
  N    -1.361736  3.218376  4.552583
  S    -1.521538 -0.412742  3.264294
  S    -1.962569  2.709962  3.026088
  S     1.525451  0.411880  0.646453
  S     1.174124  3.628766  0.569711
  S     0.788853  0.224179  4.629644
  S     0.193863  3.725152  4.567052
