16  
    
  C     1.349695  0.310432  3.121391
  C     0.969519  3.998520  2.600466
  C     0.114768  0.149400  2.328555
  C    -0.106563  3.405470  1.820858
  N     2.475106  0.279327  2.400697
  N     2.001956  4.411505  1.923017
  N     0.344489 -0.082037  1.062412
  N     0.141669  3.188067  0.544283
  N    -0.681655  0.536832  4.675143
  N    -0.980937  3.779542  4.202874
  S    -1.371650  0.307831  3.216967
  S    -1.537850  3.245755  2.797040
  S     1.991799 -0.040398  0.780219
  S     1.725194  3.792956  0.345520
  S     0.953214  0.794169  4.776299
  S     0.635186  4.347531  4.325178
