16  
    
  C     2.537331  1.071811  3.320785
  C     2.990982  5.434909  3.937018
  C     1.313034  0.618063  2.618008
  C     1.740633  5.027975  3.348479
  N     3.619981  1.202682  2.552626
  N     3.990233  5.459609  3.055385
  N     1.464093  0.415175  1.324280
  N     1.876107  4.497380  2.138433
  N     0.439625  1.158097  4.945560
  N     1.130854  5.693936  5.729359
  S    -0.166251  0.419664  3.602154
  S     0.398181  4.854866  4.473210
  S     3.037243  0.739009  0.937504
  S     3.428186  4.791945  1.587492
  S     2.155413  1.348276  5.009066
  S     2.757355  5.861348  5.651934
