16  
    
  C     0.002072 -0.678287  2.418168
  C    -0.251101  3.288819  2.625082
  C    -1.266456 -0.921567  1.816071
  C    -1.355903  2.549017  1.983118
  N     0.996784 -0.377778  1.576217
  N     0.698474  3.637587  1.772864
  N    -1.172797 -1.089533  0.486975
  N    -1.154467  2.364078  0.670801
  N    -1.678498 -0.856214  4.365017
  N    -1.908836  2.862640  4.492399
  S    -2.563916 -1.328642  2.968278
  S    -2.649151  2.255817  3.093277
  S     0.362894 -0.680062  0.106295
  S     0.385477  2.955280  0.311687
  S    -0.083857 -0.469845  4.172914
  S    -0.383091  3.488627  4.334374
