16  
    
  C    -4.301572 -1.784116  1.966977
  C    -4.147427  1.616400  1.899627
  C    -5.529080 -2.250783  1.344018
  C    -5.369090  1.087513  1.365914
  N    -3.286272 -1.707169  1.140503
  N    -3.159881  1.558253  1.024391
  N    -5.383284 -2.663822  0.085797
  N    -5.437874  0.824316  0.056066
  N    -5.972238 -2.142355  3.869412
  N    -5.824454  1.514620  3.834650
  S    -6.850256 -2.365592  2.443503
  S    -6.669329  0.964421  2.537011
  S    -3.762703 -2.332091 -0.308390
  S    -3.789037  1.067939 -0.411396
  S    -4.410868 -1.574797  3.707645
  S    -4.205600  1.825799  3.587287
