16  
    
  C    -5.448088 -2.672699  1.544854
  C    -5.525116  0.986609  1.345281
  C    -6.644675 -3.054264  0.879538
  C    -6.687214  0.407970  0.653189
  N    -4.375262 -2.713890  0.728349
  N    -4.530514  1.271045  0.521004
  N    -6.516618 -3.132441 -0.431511
  N    -6.535908  0.348492 -0.649923
  N    -7.237581 -3.310902  3.384078
  N    -7.212480  0.467214  3.207169
  S    -8.026765 -3.438657  1.921215
  S    -8.013491  0.109579  1.783517
  S    -4.929768 -3.047815 -0.810147
  S    -4.991735  0.876853 -1.001510
  S    -5.709782 -2.542555  3.330935
  S    -5.699091  1.223256  3.125045
