16  
    
  C     0.124638 -0.054698  2.675963
  C     0.040547  3.653271  2.619866
  C    -1.118244 -0.560028  2.104499
  C    -1.007112  2.881565  2.071030
  N     1.065354  0.196470  1.775624
  N     1.073413  3.822573  1.787644
  N    -1.089878 -0.682201  0.792304
  N    -0.973496  2.804253  0.723948
  N    -1.600938 -0.348431  4.625728
  N    -1.777900  3.380787  4.429634
  S    -2.403939 -0.915638  3.258064
  S    -2.369974  2.555192  3.086370
  S     0.386035 -0.171461  0.312038
  S     0.591162  3.184390  0.320551
  S    -0.150358  0.405599  4.344705
  S    -0.288099  4.032794  4.276686
