16  
    
  C    -2.772437 -1.558316  2.025169
  C    -2.381489  2.023308  2.064414
  C    -4.053548 -2.050635  1.491017
  C    -3.662701  1.900350  1.486322
  N    -1.780508 -1.401301  1.143748
  N    -1.359246  2.033161  1.240471
  N    -4.027855 -2.063169  0.170121
  N    -3.622015  1.770311  0.179631
  N    -4.369469 -1.943154  4.089909
  N    -4.098703  2.222291  3.959907
  S    -5.292382 -2.255475  2.704762
  S    -4.995012  2.009497  2.597997
  S    -2.516111 -1.743470 -0.348166
  S    -2.040297  1.869634 -0.270830
  S    -2.812981 -1.501099  3.820435
  S    -2.439855  2.346156  3.806988
