16  
    
  C     0.630890  0.349885  2.980345
  C     0.711624  3.609652  2.805333
  C    -0.537748 -0.138339  2.397393
  C    -0.550801  3.381028  2.217881
  N     1.632137  0.478852  2.104573
  N     1.623617  4.061168  1.909225
  N    -0.476430 -0.374538  1.087263
  N    -0.593624  3.295162  0.882389
  N    -0.995274  0.267671  4.889695
  N    -0.930610  3.522463  4.790456
  S    -1.866704 -0.106543  3.494966
  S    -1.850434  3.237621  3.377795
  S     1.046902 -0.001062  0.621531
  S     0.939872  3.702732  0.414017
  S     0.682146  0.494260  4.715707
  S     0.656988  3.721938  4.536622
