16  
    
  C    -0.121678 -0.388209  2.618885
  C     0.073530  3.530177  2.353880
  C    -1.415929 -0.656147  2.054299
  C    -1.209671  3.150635  1.682445
  N     0.892217 -0.366566  1.779057
  N     1.115472  3.597444  1.501848
  N    -1.415109 -0.609422  0.755029
  N    -1.171819  3.291315  0.335107
  N    -1.851002 -0.393272  4.553395
  N    -1.588923  3.480855  4.275503
  S    -2.741137 -0.703755  3.160299
  S    -2.448312  3.043180  2.886807
  S     0.167501 -0.391086  0.236089
  S     0.442611  3.475272 -0.042034
  S    -0.248259 -0.164799  4.309272
  S     0.016313  3.741328  4.076926
