16  
    
  C    -1.535262 -1.319349  2.165082
  C    -1.721558  2.315621  1.923102
  C    -2.798022 -1.337090  1.484632
  C    -2.957595  1.946887  1.304670
  N    -0.527404 -1.346098  1.287366
  N    -0.699778  2.439390  1.069547
  N    -2.767005 -1.546766  0.153560
  N    -2.944879  2.052108 -0.035095
  N    -3.233113 -0.981453  4.050687
  N    -3.461566  2.366402  3.782846
  S    -4.131644 -1.189171  2.635152
  S    -4.310154  1.821216  2.474921
  S    -1.150207 -1.386937 -0.196134
  S    -1.339559  2.227442 -0.443222
  S    -1.581981 -0.796560  3.790466
  S    -1.821100  2.423750  3.644745
