16  
    
  C     2.355998  1.045178  3.234319
  C     2.959602  5.195710  3.976704
  C     1.236310  0.491013  2.518190
  C     1.675092  4.989684  3.350615
  N     3.477455  1.255193  2.548754
  N     3.965753  5.357290  3.120360
  N     1.453820  0.254666  1.219609
  N     1.780024  4.684724  2.055634
  N     0.533320  1.075504  5.020003
  N     1.242742  5.813557  5.674123
  S    -0.102769  0.375100  3.647749
  S     0.380606  5.094411  4.463733
  S     3.056847  0.757526  0.958462
  S     3.399318  4.846044  1.670987
  S     2.246404  1.325962  4.923730
  S     2.860606  5.916813  5.499535
