16  
    
  C    -5.386846 -2.802986  1.539936
  C    -5.538274  1.075920  1.333832
  C    -6.677027 -3.016084  0.848387
  C    -6.660901  0.476947  0.631960
  N    -4.361501 -2.700819  0.718677
  N    -4.461283  1.335077  0.575931
  N    -6.519170 -3.258706 -0.466217
  N    -6.571567  0.378026 -0.712889
  N    -7.150865 -3.164430  3.391800
  N    -7.249416  0.545595  3.170065
  S    -7.969074 -3.547125  1.948505
  S    -7.962870  0.071414  1.767417
  S    -4.893725 -3.004751 -0.832805
  S    -4.977233  0.916426 -1.009630
  S    -5.586751 -2.580841  3.290900
  S    -5.734815  1.177193  3.073512
