16  
    
  C    -3.752663 -2.444690  1.614972
  C    -3.384260  1.731201  1.555816
  C    -5.028977 -2.477204  0.990968
  C    -4.588624  1.118679  0.987459
  N    -2.756044 -2.298192  0.779821
  N    -2.366012  1.823465  0.679203
  N    -4.996673 -2.266549 -0.333611
  N    -4.430838  0.888179 -0.303759
  N    -5.557055 -2.828804  3.517816
  N    -5.064755  1.448607  3.505157
  S    -6.401375 -2.709710  2.092058
  S    -5.807054  0.932259  2.160206
  S    -3.408432 -2.153165 -0.728963
  S    -2.889571  1.343106 -0.763086
  S    -3.931176 -2.607847  3.351241
  S    -3.613646  2.147278  3.300787
