16  
    
  C    -2.654732 -1.622900  2.133768
  C    -2.399235  2.246911  2.133099
  C    -3.980757 -1.896807  1.572342
  C    -3.644345  1.972516  1.472185
  N    -1.755512 -1.416926  1.156798
  N    -1.400520  2.237905  1.282182
  N    -4.014369 -2.113392  0.274556
  N    -3.653933  1.862374  0.145343
  N    -4.443273 -1.735919  4.047419
  N    -4.165597  2.048264  4.053149
  S    -5.249596 -2.185199  2.663380
  S    -4.971912  1.906162  2.598719
  S    -2.508501 -1.684731 -0.281751
  S    -2.020191  1.935658 -0.237186
  S    -2.786102 -1.451466  3.834823
  S    -2.524170  2.334499  3.890485
