16  
    
  C    -5.679749 -3.066819  1.449349
  C    -6.035833  0.875940  1.475050
  C    -6.891047 -3.505142  0.799619
  C    -7.152105  0.159457  0.948958
  N    -4.723541 -2.692733  0.600281
  N    -5.154113  1.271072  0.592664
  N    -6.841007 -3.790075 -0.503944
  N    -7.103240  0.097503 -0.361734
  N    -7.459716 -3.467371  3.281346
  N    -7.467863  0.202691  3.478964
  S    -8.157913 -3.889625  1.828290
  S    -8.304388 -0.239411  2.111305
  S    -5.340454 -3.198804 -0.938901
  S    -5.683560  0.805189 -0.881715
  S    -5.964073 -2.801168  3.142957
  S    -6.051696  1.058067  3.224979
