16  
    
  C     3.336206  1.571450  3.358786
  C     3.113394  5.046712  3.452777
  C     2.039684  1.452020  2.764032
  C     1.812502  4.794209  2.821756
  N     4.265324  1.403658  2.447649
  N     4.121531  5.132588  2.604611
  N     1.989342  1.276491  1.445616
  N     1.952990  4.376800  1.552091
  N     1.574415  1.683548  5.293921
  N     1.389226  5.015220  5.382700
  S     0.722186  1.627267  3.871021
  S     0.534265  4.576154  4.027440
  S     3.563550  1.227150  0.915189
  S     3.535017  4.707977  1.058903
  S     3.272740  1.932110  5.091432
  S     3.062519  5.295312  5.184799
