16  
    
  C     1.054144  0.247795  2.936177
  C     0.441363  3.815219  2.836735
  C    -0.103651 -0.150639  2.234041
  C    -0.547355  3.010757  2.100613
  N     2.095441  0.582240  2.189938
  N     1.560874  3.971450  2.129658
  N     0.007949 -0.121174  0.920657
  N    -0.251534  2.925322  0.799254
  N    -0.780933 -0.261873  4.743517
  N    -1.382206  3.205029  4.548235
  S    -1.545181 -0.394879  3.281301
  S    -1.987319  2.676113  3.021230
  S     1.564000  0.407480  0.630008
  S     1.174776  3.638151  0.585307
  S     0.781184  0.213506  4.676314
  S     0.160625  3.727296  4.578846
