16  
    
  C    -0.357626 -0.757857  2.710453
  C    -0.417571  3.272477  2.688254
  C    -1.667374 -1.121254  2.133300
  C    -1.489257  2.534461  2.065314
  N     0.584411 -0.776100  1.817636
  N     0.709942  3.458120  1.954229
  N    -1.597505 -1.375163  0.850666
  N    -1.368158  2.516182  0.729076
  N    -2.018532 -0.601993  4.655103
  N    -2.189794  3.004542  4.549488
  S    -2.886178 -1.244983  3.358356
  S    -2.851443  2.357912  3.138411
  S    -0.050467 -1.149558  0.336298
  S     0.234002  2.900605  0.428544
  S    -0.410851 -0.307897  4.406067
  S    -0.655760  3.665126  4.386449
