16  
    
  C    -4.118628 -2.050742  1.775376
  C    -4.147366  1.265369  1.772955
  C    -5.501829 -2.240368  1.332029
  C    -5.360199  1.269309  1.041755
  N    -3.171973 -2.144955  0.873898
  N    -3.075446  1.260730  1.032558
  N    -5.538520 -2.389694  0.016300
  N    -5.279065  1.130639 -0.263437
  N    -5.686318 -2.114867  3.895398
  N    -6.002804  1.520665  3.475424
  S    -6.696354 -2.283827  2.584266
  S    -6.813781  1.278646  1.985275
  S    -3.948084 -2.441166 -0.576214
  S    -3.611535  1.155878 -0.561132
  S    -4.035259 -1.976204  3.525115
  S    -4.320971  1.629894  3.447508
