16  
    
  C     2.603972  1.104066  3.380603
  C     2.941548  5.234371  3.651978
  C     1.449734  0.692923  2.671747
  C     1.602173  5.136734  3.096686
  N     3.655913  1.423731  2.607220
  N     3.914996  4.871299  2.818119
  N     1.646310  0.680942  1.355269
  N     1.585890  4.764611  1.799896
  N     0.682255  0.826906  5.127828
  N     1.333000  5.509719  5.686354
  S     0.121146  0.232516  3.700380
  S     0.394138  5.378500  4.346557
  S     3.214249  1.196067  1.114060
  S     3.175763  4.688613  1.347844
  S     2.295140  1.126169  5.112607
  S     2.956768  5.444491  5.417198
