16  
    
  C     0.680358  0.306637  3.085784
  C     0.683000  3.922410  2.877241
  C    -0.611989 -0.006944  2.461189
  C    -0.583552  3.471613  2.237206
  N     1.690425  0.242773  2.212991
  N     1.729676  3.893292  2.077750
  N    -0.533014 -0.084531  1.144984
  N    -0.449389  3.219366  0.955056
  N    -1.111722  0.242045  5.004326
  N    -0.991355  3.637149  4.847113
  S    -1.932423  0.073762  3.594138
  S    -1.803254  3.210822  3.400359
  S     1.025654  0.022770  0.680666
  S     1.092112  3.643016  0.524017
  S     0.509066  0.478981  4.762148
  S     0.582997  4.102318  4.625297
