16  
    
  C     1.795537  0.458265  3.176944
  C     1.891977  4.587468  3.354574
  C     0.597797  0.134990  2.449996
  C     0.789012  3.937252  2.673625
  N     2.853640  0.723770  2.444053
  N     2.917590  4.807901  2.534995
  N     0.725143  0.250390  1.145754
  N     0.875881  3.934529  1.322065
  N    -0.028454  0.014010  4.892222
  N     0.339543  4.014677  5.287646
  S    -0.776622 -0.270267  3.467444
  S    -0.472062  3.717498  3.790495
  S     2.353287  0.704944  0.862729
  S     2.396773  4.630543  0.973432
  S     1.513380  0.615375  4.850219
  S     1.907790  4.438762  5.054706
