16  
    
  C     1.637939  0.819698  3.250769
  C     2.006927  4.558540  3.264984
  C     0.592914  0.173842  2.508416
  C     0.782479  4.083777  2.662423
  N     2.675710  1.230497  2.557108
  N     3.032595  4.618318  2.467049
  N     0.863911  0.001363  1.238822
  N     0.870417  3.914624  1.377542
  N    -0.317017  0.371429  4.989491
  N     0.342240  4.242989  5.209034
  S    -0.798595 -0.163473  3.469470
  S    -0.425675  3.701226  3.830064
  S     2.399898  0.692580  0.996538
  S     2.479756  4.384288  0.897107
  S     1.310051  0.898225  4.935946
  S     1.838373  4.916769  4.944748
