16  
    
  C    -0.001123 -0.708901  2.555350
  C    -0.332631  3.252627  2.600319
  C    -1.195964 -1.229371  2.036139
  C    -1.553528  2.575835  2.060484
  N     0.965516 -0.513743  1.695993
  N     0.694836  3.352637  1.738386
  N    -1.168891 -1.526616  0.771453
  N    -1.476727  2.457542  0.737406
  N    -1.729024 -0.681022  4.487170
  N    -1.938858  2.906137  4.628909
  S    -2.568848 -1.137364  3.145947
  S    -2.775417  2.483747  3.266453
  S     0.351225 -1.022468  0.189145
  S     0.032819  2.965889  0.250340
  S    -0.133858 -0.365805  4.231356
  S    -0.286762  3.291960  4.335647
