16  
    
  C    -5.907623 -3.034111  1.373653
  C    -6.001146  0.908934  1.308968
  C    -7.082400 -3.396925  0.608108
  C    -7.267307  0.558471  0.632799
  N    -4.798666 -2.953224  0.671462
  N    -4.909691  1.058762  0.517853
  N    -6.798935 -3.455433 -0.703895
  N    -7.086617  0.541653 -0.678846
  N    -7.686027 -3.328392  3.104314
  N    -7.784613  0.269804  3.154779
  S    -8.543831 -3.469393  1.637241
  S    -8.607781  0.228306  1.770605
  S    -5.160790 -3.257702 -0.884349
  S    -5.497083  0.800023 -1.009491
  S    -6.093431 -2.913064  3.079974
  S    -6.188659  0.650321  3.094130
