16  
    
  C     3.370931  1.535086  3.567007
  C     3.157906  5.039566  3.496376
  C     2.051945  1.444932  3.003418
  C     1.890613  4.927133  2.828027
  N     4.287026  1.426693  2.602843
  N     4.220689  5.073023  2.709782
  N     1.978651  1.323963  1.681190
  N     1.990375  4.585951  1.529595
  N     1.623175  1.474800  5.552146
  N     1.372348  5.147039  5.400225
  S     0.715819  1.395047  4.130975
  S     0.598462  4.722559  4.004183
  S     3.546636  1.316927  1.169465
  S     3.656991  4.630621  1.175937
  S     3.271403  1.604289  5.279187
  S     3.003951  5.264125  5.168565
