16  
    
  C    -2.855591 -1.506957  2.015370
  C    -2.421008  1.947541  2.019008
  C    -4.053976 -2.108156  1.437816
  C    -3.703894  1.902207  1.427456
  N    -1.872469 -1.370275  1.115351
  N    -1.440953  1.922694  1.141453
  N    -4.052247 -2.132847  0.105559
  N    -3.730593  1.636869  0.124790
  N    -4.512164 -2.036390  3.928871
  N    -4.052137  2.219586  3.945182
  S    -5.340097 -2.533871  2.578637
  S    -4.977601  2.118031  2.584387
  S    -2.560240 -1.634788 -0.368857
  S    -2.090771  1.624842 -0.317236
  S    -2.897613 -1.590943  3.721959
  S    -2.424676  2.386249  3.768033
