16  
    
  C    -2.711716 -1.675514  1.950625
  C    -3.173590  1.938331  1.751568
  C    -4.000458 -1.891306  1.325419
  C    -4.241020  1.233789  1.039061
  N    -1.714486 -1.526546  1.092039
  N    -2.042990  2.229972  1.056504
  N    -3.908586 -2.123862  0.014918
  N    -3.958724  1.146406 -0.273451
  N    -4.389248 -1.672288  3.887172
  N    -5.144380  1.597616  3.517486
  S    -5.266544 -1.900854  2.472666
  S    -5.683530  1.164887  2.036781
  S    -2.294973 -1.949278 -0.365317
  S    -2.471279  1.807395 -0.525436
  S    -2.774315 -1.396701  3.695926
  S    -3.570796  2.161172  3.456579
