16  
    
  C     2.034376  0.818401  3.066474
  C     2.182833  4.609738  3.005308
  C     0.773510  0.665745  2.410352
  C     1.067813  3.930733  2.349154
  N     3.084217  0.583830  2.279109
  N     3.308301  4.510903  2.294463
  N     0.821193  0.417263  1.114771
  N     1.251382  3.625248  1.063810
  N     0.248712  1.005367  4.902867
  N     0.228616  4.361829  4.724888
  S    -0.558345  0.596352  3.514126
  S    -0.426387  3.975515  3.280835
  S     2.493382  0.243950  0.757253
  S     2.819274  4.056188  0.763339
  S     1.917525  1.268034  4.762758
  S     1.883024  4.833931  4.769555
