16  
    
  C     1.904828  0.531825  3.152928
  C     1.940462  4.133285  3.167830
  C     0.572331  0.335283  2.601837
  C     0.605743  3.934635  2.583370
  N     2.863905  0.505232  2.228228
  N     2.923187  4.368838  2.284442
  N     0.556884  0.249673  1.236357
  N     0.661958  3.898280  1.277572
  N     0.371681  0.473849  5.122846
  N     0.148885  4.269082  5.177957
  S    -0.621005  0.126514  3.808131
  S    -0.768569  4.054177  3.716837
  S     2.116383  0.353772  0.770669
  S     2.181338  4.078639  0.841507
  S     1.958622  0.789436  4.860827
  S     1.805896  4.223439  4.926952
