16  
    
  C    -1.439984 -1.247512  2.150398
  C    -1.730748  2.244579  1.898020
  C    -2.771140 -1.395272  1.529284
  C    -3.033777  2.104593  1.347016
  N    -0.405568 -1.355499  1.346714
  N    -0.693161  2.375963  1.066891
  N    -2.708580 -1.466611  0.247309
  N    -2.979718  1.997724  0.014801
  N    -3.228758 -1.030171  4.051642
  N    -3.448380  2.318872  3.856907
  S    -4.047348 -1.176480  2.659545
  S    -4.282830  1.802113  2.507436
  S    -1.119028 -1.440418 -0.218811
  S    -1.390337  2.261206 -0.443273
  S    -1.610336 -0.781693  3.832564
  S    -1.782884  2.509300  3.632189
