16  
    
  C    -1.499000 -0.921273  2.220006
  C    -1.755740  2.409994  2.050499
  C    -2.787984 -1.308694  1.633317
  C    -3.018905  2.140843  1.441417
  N    -0.490414 -1.094494  1.389673
  N    -0.775010  2.619628  1.155357
  N    -2.716847 -1.581454  0.332648
  N    -2.986109  1.899467  0.118538
  N    -3.175451 -1.025667  4.130128
  N    -3.429578  2.087379  3.994016
  S    -4.057145 -1.203673  2.770339
  S    -4.346612  1.870656  2.629593
  S    -1.127504 -1.474810 -0.085364
  S    -1.414159  2.129596 -0.340899
  S    -1.544088 -0.938108  3.932775
  S    -1.837406  2.599675  3.737936
