16  
    
  C     3.099041  1.463700  3.317675
  C     3.141118  5.063990  3.397652
  C     1.858213  1.149411  2.682744
  C     1.915243  4.618427  2.718860
  N     4.128484  1.612074  2.479475
  N     4.202276  5.097251  2.584788
  N     1.908019  0.973588  1.352244
  N     2.029169  4.579950  1.389111
  N     1.273575  1.656344  5.161110
  N     1.173855  5.029006  5.064238
  S     0.515205  1.339819  3.721013
  S     0.471317  4.673545  3.598609
  S     3.478304  1.374249  0.972521
  S     3.623518  4.876518  1.061993
  S     2.938452  1.716573  5.059040
  S     2.828091  5.262658  5.092033
