16  
    
  C    -1.404233 -1.163343  2.190661
  C    -1.761663  2.402414  1.965311
  C    -2.727834 -1.294816  1.554724
  C    -3.021168  2.048009  1.349180
  N    -0.430407 -1.221191  1.303726
  N    -0.777045  2.360644  1.085799
  N    -2.679283 -1.491108  0.275355
  N    -3.033786  1.993744 -0.000192
  N    -3.205137 -1.086205  4.104882
  N    -3.375267  2.171154  3.902166
  S    -4.072591 -1.189123  2.658531
  S    -4.250900  1.854871  2.545891
  S    -1.098822 -1.503601 -0.168136
  S    -1.437650  2.229315 -0.406660
  S    -1.538471 -0.821378  3.950736
  S    -1.797136  2.580513  3.679932
