16  
    
  C     3.342617  1.590190  3.362533
  C     3.116757  5.079515  3.451198
  C     2.045424  1.466790  2.751294
  C     1.819402  4.782044  2.819280
  N     4.279376  1.406470  2.465879
  N     4.118266  5.136760  2.591461
  N     1.991112  1.285947  1.435386
  N     1.952580  4.415146  1.545093
  N     1.569458  1.667256  5.282253
  N     1.388562  5.019523  5.368770
  S     0.707856  1.622058  3.863255
  S     0.541754  4.567322  4.004553
  S     3.556722  1.210497  0.905972
  S     3.522840  4.698143  1.065630
  S     3.270337  1.949738  5.085914
  S     3.059777  5.282585  5.189660
