16  
    
  C    -4.220695 -1.955352  1.858096
  C    -4.169757  1.619984  1.837632
  C    -5.440024 -2.442467  1.225825
  C    -5.341369  0.910495  1.451142
  N    -3.235436 -1.839263  0.987611
  N    -3.169166  1.727165  0.958474
  N    -5.315311 -2.822971 -0.061375
  N    -5.335641  0.551978  0.165944
  N    -5.984144 -2.132912  3.767598
  N    -5.915266  1.786563  3.747656
  S    -6.783677 -2.300200  2.311506
  S    -6.652421  0.952136  2.534522
  S    -3.741243 -2.428830 -0.488142
  S    -3.811723  1.068049 -0.441407
  S    -4.522286 -1.475048  3.502368
  S    -4.281948  1.962698  3.558067
