16  
    
  C    -3.048355 -1.380721  2.239482
  C    -3.163783  1.732334  2.006591
  C    -4.243256 -1.782321  1.552049
  C    -4.386154  1.401466  1.372858
  N    -2.054056 -1.226156  1.377201
  N    -2.167767  2.070465  1.181504
  N    -4.163300 -1.918777  0.251613
  N    -4.304497  1.325123  0.036639
  N    -4.814134 -1.575855  4.049455
  N    -5.045357  1.582344  3.818756
  S    -5.595255 -1.912750  2.602749
  S    -5.749948  1.243214  2.394503
  S    -2.584392 -1.575581 -0.128652
  S    -2.775674  1.765957 -0.332627
  S    -3.218461 -1.157732  3.968849
  S    -3.459951  1.904143  3.734525
