16  
    
  C    -0.160946 -0.171245  2.717989
  C     0.177639  3.398563  2.282791
  C    -1.374757 -0.640130  2.050948
  C    -1.091586  3.209993  1.676332
  N     0.972137 -0.133018  1.954095
  N     1.088373  3.805782  1.441086
  N    -1.180455 -0.815283  0.733317
  N    -1.048828  3.151069  0.348923
  N    -2.064270 -0.579584  4.472707
  N    -1.500190  3.066461  4.198978
  S    -2.786758 -0.852092  2.999603
  S    -2.349383  2.938348  2.836557
  S     0.391921 -0.541338  0.491842
  S     0.560189  3.473963 -0.074423
  S    -0.417220 -0.303878  4.395070
  S     0.121019  3.419218  4.062780
