16  
    
  C     2.893662  1.442700  3.385905
  C     2.946877  5.031603  3.195707
  C     1.713200  0.948024  2.753287
  C     1.718570  4.465546  2.646368
  N     3.907516  1.755293  2.572597
  N     3.896642  5.320030  2.323941
  N     1.855415  0.837767  1.443566
  N     1.804804  4.267818  1.360239
  N     1.173750  1.285380  5.359153
  N     1.218191  5.027969  5.098352
  S     0.407002  0.764924  3.932838
  S     0.449560  4.200502  3.783296
  S     3.421491  1.460920  1.073046
  S     3.339173  4.834119  0.880131
  S     2.792922  1.633589  5.154714
  S     2.830185  5.465191  4.855318
