16  
    
  C    -0.933861 -0.531350  2.405619
  C    -0.516441  3.228081  2.871738
  C    -2.144269 -0.929017  1.790863
  C    -1.776528  2.790684  2.269941
  N     0.181550 -0.607037  1.636071
  N     0.550358  3.232602  2.071327
  N    -2.059336 -1.027560  0.458616
  N    -1.662452  2.628500  0.961654
  N    -2.748727 -0.646224  4.262096
  N    -2.370001  3.266941  4.683349
  S    -3.497884 -1.181425  2.862473
  S    -3.118823  2.731336  3.316781
  S    -0.430362 -0.900517  0.096368
  S    -0.064142  2.805931  0.569347
  S    -1.071049 -0.468969  4.149107
  S    -0.770637  3.707206  4.561408
