16  
    
  C     1.078519  0.280695  3.060689
  C     0.995467  4.248974  2.613834
  C    -0.106479  0.048033  2.321632
  C    -0.045652  3.375846  2.027776
  N     2.246840  0.301079  2.314847
  N     2.028786  4.292470  1.747088
  N     0.100628 -0.106868  1.021009
  N     0.150225  3.127119  0.734584
  N    -0.903500  0.063233  4.866992
  N    -0.879731  4.192752  4.319312
  S    -1.605039  0.147729  3.348968
  S    -1.386680  3.268766  3.035904
  S     1.745057  0.007284  0.777990
  S     1.696159  3.512999  0.390132
  S     0.803669  0.375051  4.797524
  S     0.728868  4.687736  4.316041
