16  
    
  C    -3.854879 -2.207181  1.702643
  C    -3.573016  2.074556  1.652351
  C    -5.106626 -2.503438  1.058064
  C    -4.737692  1.447581  1.082307
  N    -2.948606 -1.862637  0.801886
  N    -2.568851  2.236286  0.771325
  N    -5.076568 -2.523563 -0.305722
  N    -4.685309  1.320347 -0.242999
  N    -5.636347 -2.518327  3.585886
  N    -5.143880  1.470942  3.550096
  S    -6.455729 -2.704407  2.179934
  S    -5.969585  0.978752  2.201610
  S    -3.534184 -2.038441 -0.718035
  S    -3.147372  1.767616 -0.687541
  S    -3.967742 -2.349045  3.431042
  S    -3.661831  2.140199  3.369090
