16  
    
  C    -3.098583 -1.489446  2.260417
  C    -3.311688  1.900005  2.012477
  C    -4.299010 -1.963039  1.639413
  C    -4.596495  1.532872  1.418382
  N    -2.013163 -1.379659  1.471774
  N    -2.368692  2.223094  1.127429
  N    -4.122712 -2.039848  0.318557
  N    -4.459184  1.322920  0.119832
  N    -4.860986 -1.580621  4.129416
  N    -4.963703  1.504192  3.965333
  S    -5.664477 -1.767275  2.698082
  S    -5.794369  1.080706  2.564826
  S    -2.556231 -1.626381 -0.050364
  S    -2.939566  1.795748 -0.337914
  S    -3.231744 -1.437984  3.968177
  S    -3.299095  1.867493  3.757632
