16  
    
  C    -5.223282 -2.904790  1.410109
  C    -5.494663  1.020790  1.317816
  C    -6.464535 -3.428444  0.828468
  C    -6.604837  0.523930  0.580514
  N    -4.344086 -2.469552  0.504500
  N    -4.552349  1.436185  0.513077
  N    -6.455660 -3.550780 -0.472469
  N    -6.431688  0.483166 -0.723499
  N    -7.010669 -2.923847  3.313711
  N    -7.279200  0.616333  3.096248
  S    -7.800504 -3.603903  2.007648
  S    -7.934262  0.071273  1.625024
  S    -5.027010 -2.808251 -1.042101
  S    -4.930043  1.086758 -1.052272
  S    -5.331883 -2.652525  3.178129
  S    -5.697771  1.128605  3.068530
