16  
    
  C    -5.827669 -3.084299  1.519935
  C    -6.074706  0.770065  1.363524
  C    -6.981224 -3.419499  0.713567
  C    -7.299370  0.394670  0.713974
  N    -4.699410 -2.926446  0.846271
  N    -5.131825  1.177743  0.539171
  N    -6.791918 -3.609368 -0.585188
  N    -7.194583  0.330295 -0.574802
  N    -7.827826 -3.199166  3.162981
  N    -7.730507  0.234839  3.225561
  S    -8.423413 -3.393771  1.645946
  S    -8.540112  0.061531  1.765003
  S    -5.152566 -3.243059 -0.772029
  S    -5.658099  0.874388 -0.995499
  S    -6.124494 -3.022590  3.176714
  S    -6.104548  0.762695  3.058626
