16  
    
  C    -1.991275 -1.085565  2.165297
  C    -1.820231  2.303558  2.033652
  C    -3.248723 -1.359882  1.553299
  C    -3.067192  1.976986  1.321752
  N    -0.975804 -0.969234  1.379254
  N    -0.701233  2.318186  1.294181
  N    -3.213750 -1.397672  0.240303
  N    -2.858997  1.844475  0.015026
  N    -3.665724 -0.919179  4.136471
  N    -3.686582  2.123060  3.766735
  S    -4.557732 -1.203691  2.770917
  S    -4.431376  1.814967  2.312333
  S    -1.588857 -1.227056 -0.165724
  S    -1.271782  2.125867 -0.301318
  S    -2.016680 -0.830436  3.861299
  S    -2.057817  2.411177  3.747019
