16  
    
  C     1.467924  0.920031  3.415671
  C     1.331159  4.599992  3.263031
  C     0.222664  0.568186  2.828902
  C     0.062881  4.179274  2.781631
  N     2.507673  0.838514  2.574098
  N     2.201051  4.877890  2.302877
  N     0.255157  0.223085  1.559089
  N    -0.069780  3.953632  1.450153
  N    -0.304328  0.911295  5.387152
  N    -0.150115  4.328460  5.395507
  S    -1.046367  0.439356  3.998818
  S    -1.094837  4.083183  4.117950
  S     1.838336  0.340075  1.115835
  S     1.431229  4.294736  0.921143
  S     1.355563  1.262686  5.098172
  S     1.444295  4.652906  5.037253
