16  
    
  C    -4.618791 -2.174629  1.504483
  C    -4.434472  1.344665  1.973150
  C    -5.701559 -2.662508  0.741677
  C    -5.608406  0.800028  1.330475
  N    -3.566904 -1.788094  0.784993
  N    -3.560307  1.798373  1.089086
  N    -5.447510 -2.806140 -0.560150
  N    -5.553002  0.726564  0.003126
  N    -6.437816 -2.922611  3.208500
  N    -5.970393  0.866595  3.816134
  S    -7.046537 -3.318173  1.743728
  S    -6.770733  0.355469  2.474712
  S    -3.970488 -2.160959 -0.834697
  S    -4.148924  1.425979 -0.394916
  S    -4.889568 -2.435596  3.185291
  S    -4.405503  1.440171  3.641487
