16  
    
  C     0.859704  0.293339  2.822295
  C     0.570192  3.521567  2.696521
  C    -0.339547 -0.119941  2.254650
  C    -0.699311  3.374064  2.082264
  N     1.846555  0.613473  2.012035
  N     1.572306  3.675721  1.865397
  N    -0.251545 -0.279851  0.938365
  N    -0.676515  3.342382  0.737303
  N    -0.811570 -0.006706  4.768932
  N    -1.061577  3.255506  4.649386
  S    -1.580415 -0.512385  3.402860
  S    -1.887124  2.953451  3.200108
  S     1.253402  0.206826  0.493643
  S     0.883799  3.650867  0.368813
  S     0.710669  0.524647  4.534823
  S     0.516176  3.534009  4.519389
