16  
    
  C     2.578827  1.177403  3.343659
  C     2.711522  5.194682  3.661277
  C     1.452965  0.587110  2.661186
  C     1.483856  4.560620  3.174074
  N     3.649694  1.365503  2.590285
  N     3.746685  5.122021  2.844703
  N     1.693134  0.311327  1.387923
  N     1.523416  4.241741  1.900292
  N     0.555303  0.904152  4.999797
  N     1.112675  4.956275  5.633057
  S    -0.045994  0.530458  3.515578
  S     0.282699  4.235675  4.362701
  S     3.239204  0.841107  1.049875
  S     3.065655  4.574648  1.386072
  S     2.212503  1.391422  5.042927
  S     2.615369  5.609772  5.393401
