16  
    
  C    -5.304589 -2.470829  1.469023
  C    -5.365654  1.122964  1.355770
  C    -6.567016 -2.910665  0.879848
  C    -6.507559  0.460320  0.689982
  N    -4.389738 -2.060885  0.610441
  N    -4.402896  1.377035  0.516612
  N    -6.544647 -2.958585 -0.448891
  N    -6.392967  0.427680 -0.637212
  N    -7.142420 -2.589271  3.368861
  N    -7.124474  0.906531  3.149692
  S    -7.954076 -3.011453  1.974282
  S    -7.805942  0.192636  1.804228
  S    -5.029808 -2.374944 -0.949865
  S    -4.883069  0.969301 -1.015862
  S    -5.482161 -2.154899  3.200108
  S    -5.492486  1.277584  3.099719
