16  
    
  C    -1.307988 -0.966465  2.217455
  C    -1.542225  2.980823  1.968554
  C    -2.547919 -1.262323  1.503723
  C    -2.577461  2.228129  1.381826
  N    -0.261729 -0.723645  1.375570
  N    -0.509300  3.336780  1.199581
  N    -2.367370 -1.425463  0.180846
  N    -2.417887  2.161087  0.067682
  N    -3.129540 -1.125922  3.981267
  N    -3.311437  2.553653  3.822777
  S    -3.845785 -1.666986  2.541698
  S    -3.861221  1.815821  2.432738
  S    -0.837862 -0.994096 -0.133433
  S    -0.937837  2.771012 -0.326660
  S    -1.513055 -0.767229  3.904609
  S    -1.881735  3.383241  3.664532
