16  
    
  C     1.472427  0.980172  3.246405
  C     1.648608  4.427134  3.461316
  C     0.281013  0.450273  2.669965
  C     0.324442  4.303286  2.883468
  N     2.435818  1.203650  2.377482
  N     2.604767  4.351405  2.510866
  N     0.394702  0.200964  1.357303
  N     0.310212  3.920779  1.612577
  N    -0.272538  0.881676  5.175193
  N    -0.026478  4.655598  5.352852
  S    -1.088888  0.495574  3.688673
  S    -0.994632  4.216775  4.072540
  S     1.901399  0.735834  0.894554
  S     1.897157  4.051501  1.075370
  S     1.350334  1.306611  4.949961
  S     1.584826  4.874229  5.112234
