16  
    
  C    -0.053749 -0.390652  2.430466
  C    -0.331253  3.347656  2.699409
  C    -1.274594 -0.957695  1.838544
  C    -1.607627  3.226121  2.039477
  N     0.946580 -0.278279  1.557018
  N     0.656644  3.398000  1.817816
  N    -1.168966 -0.959639  0.499460
  N    -1.619581  2.969044  0.732260
  N    -1.887620 -0.591949  4.245856
  N    -2.094552  3.236076  4.658478
  S    -2.604341 -1.316064  2.930171
  S    -2.887027  2.884862  3.201138
  S     0.324064 -0.635691  0.034838
  S    -0.033190  3.259660  0.287267
  S    -0.340810 -0.030591  4.099058
  S    -0.451515  3.698188  4.416172
