16  
    
  C    -5.391136 -2.817718  1.531885
  C    -5.537021  1.072039  1.315880
  C    -6.661464 -3.064718  0.832194
  C    -6.676021  0.518923  0.628965
  N    -4.347391 -2.691328  0.735177
  N    -4.466793  1.348294  0.567929
  N    -6.535084 -3.287924 -0.477116
  N    -6.542559  0.393484 -0.671427
  N    -7.136207 -3.117240  3.391752
  N    -7.264455  0.576070  3.178887
  S    -7.937952 -3.564649  1.955709
  S    -7.943481  0.060174  1.748885
  S    -4.897069 -2.986500 -0.831122
  S    -4.975487  0.928763 -1.006988
  S    -5.555545 -2.599608  3.261161
  S    -5.744568  1.158993  3.048442
