16  
    
  C     2.959463  1.518074  3.443221
  C     2.886657  5.132954  3.184044
  C     1.785329  0.886600  2.879992
  C     1.687415  4.516145  2.631073
  N     3.926645  1.867916  2.606293
  N     3.822943  5.414390  2.300855
  N     1.860879  0.719369  1.579399
  N     1.844256  4.185672  1.353205
  N     1.139929  1.470000  5.228954
  N     1.262273  4.852823  5.170940
  S     0.453962  0.696920  3.957073
  S     0.546584  4.166747  3.885898
  S     3.273034  1.301035  1.081486
  S     3.283755  4.851441  0.842899
  S     2.785695  1.747556  5.185117
  S     2.788102  5.476517  4.891548
