16  
    
  C    -4.684436 -2.793277  1.490197
  C    -4.678996  1.037732  1.438504
  C    -5.994618 -3.059582  0.936934
  C    -5.935254  0.936053  0.688499
  N    -3.678128 -2.662012  0.638927
  N    -3.612953  1.117649  0.659783
  N    -6.016853 -3.071518 -0.370228
  N    -5.793494  0.716875 -0.636353
  N    -6.393783 -2.713341  3.404314
  N    -6.454561  0.750142  3.268851
  S    -7.293965 -2.948878  2.064039
  S    -7.217329  0.690573  1.879514
  S    -4.431479 -2.782682 -0.834090
  S    -4.145280  0.928801 -0.892598
  S    -4.772055 -2.478902  3.179663
  S    -4.837068  0.938732  3.235838
