16  
    
  C     0.708085  0.470276  3.068655
  C     0.636524  3.800008  2.969374
  C    -0.511011  0.069431  2.401934
  C    -0.613118  3.272742  2.454374
  N     1.757287  0.508254  2.249012
  N     1.559765  4.108014  2.041970
  N    -0.426604 -0.114083  1.087698
  N    -0.482421  2.895154  1.211922
  N    -1.035035  0.271022  4.930368
  N    -1.170511  4.003934  4.857134
  S    -1.849766  0.268353  3.485342
  S    -1.984221  3.298643  3.559519
  S     1.185657  0.149318  0.723879
  S     1.062583  3.305524  0.710124
  S     0.633484  0.536412  4.822160
  S     0.459958  4.286757  4.622287
