16  
    
  C    -1.427599 -0.952272  2.410866
  C    -1.509594  2.775716  2.129015
  C    -2.499721 -1.495816  1.577563
  C    -2.543543  2.094944  1.457660
  N    -0.375832 -0.668618  1.708119
  N    -0.518670  3.155797  1.294535
  N    -2.240798 -1.557707  0.293947
  N    -2.236745  1.676319  0.213928
  N    -3.352011 -1.460360  4.051137
  N    -3.373553  2.432594  3.840311
  S    -3.934450 -1.738760  2.454536
  S    -3.919474  1.635824  2.505671
  S    -0.692756 -1.048913  0.147515
  S    -0.820270  2.408405 -0.178351
  S    -1.742691 -0.948984  4.124585
  S    -1.859437  3.045125  3.760943
