16  
    
  C    -4.234265 -1.964338  1.752282
  C    -4.148707  1.539894  1.940640
  C    -5.429505 -2.524075  1.208076
  C    -5.371917  0.953886  1.382865
  N    -3.178746 -1.989017  0.956573
  N    -3.212606  1.736876  1.013833
  N    -5.326060 -2.751468 -0.123734
  N    -5.242309  0.527059  0.117435
  N    -6.021083 -2.073775  3.651426
  N    -5.911163  1.749676  3.691505
  S    -6.813489 -2.380206  2.267415
  S    -6.690419  0.933111  2.481064
  S    -3.766438 -2.508246 -0.553780
  S    -3.835513  1.049776 -0.396629
  S    -4.438886 -1.463359  3.523360
  S    -4.309099  2.061067  3.511084
