16  
    
  C    -4.738739 -2.640654  1.504901
  C    -4.575768  1.161444  1.567171
  C    -6.000787 -2.870705  0.850230
  C    -5.841740  0.874269  0.901833
  N    -3.774331 -2.440025  0.601814
  N    -3.541981  1.204668  0.730693
  N    -5.968941 -3.006082 -0.471651
  N    -5.816294  0.870634 -0.403404
  N    -6.425362 -2.715388  3.456116
  N    -6.419953  0.730922  3.361112
  S    -7.289739 -2.995897  2.011660
  S    -7.243828  0.621250  1.859465
  S    -4.389164 -2.715178 -0.899547
  S    -4.144115  0.926002 -0.801997
  S    -4.767382 -2.505525  3.271009
  S    -4.713180  0.913005  3.215760
