16  
    
  C    -2.828936 -2.028111  2.008982
  C    -2.896633  2.492905  1.898620
  C    -4.033528 -2.207415  1.193275
  C    -4.049119  2.052509  1.224163
  N    -1.753771 -1.732266  1.297610
  N    -1.760611  2.508908  1.209381
  N    -3.808796 -2.271202 -0.128725
  N    -3.861041  1.923361 -0.090978
  N    -4.758369 -2.037745  3.726851
  N    -4.647466  1.878025  3.693698
  S    -5.406671 -2.382956  2.282767
  S    -5.366795  1.558692  2.231154
  S    -2.180960 -1.954237 -0.310780
  S    -2.230809  2.160511 -0.344715
  S    -3.111251 -1.686311  3.709905
  S    -3.064896  2.357117  3.608500
