16  
    
  C    -4.321023 -2.513058  1.491983
  C    -4.457640  1.641477  1.936258
  C    -5.519771 -2.857050  0.785652
  C    -5.635225  0.983524  1.350092
  N    -3.271215 -2.178159  0.754800
  N    -3.445171  1.751884  1.114151
  N    -5.305034 -2.974930 -0.521214
  N    -5.492701  0.840872  0.024172
  N    -6.262707 -2.826938  3.308871
  N    -6.000518  1.083728  3.930030
  S    -6.878132 -3.305713  1.821134
  S    -6.809433  0.637337  2.517188
  S    -3.761911 -2.471032 -0.848035
  S    -3.992194  1.255003 -0.381893
  S    -4.664863 -2.320688  3.219457
  S    -4.389349  1.780214  3.701249
