16  
    
  C    -0.915749 -0.809737  2.310224
  C    -0.699081  3.089353  2.485344
  C    -1.980368 -1.502890  1.633332
  C    -1.920371  2.525638  1.880505
  N     0.107548 -0.636416  1.521457
  N     0.265294  3.175374  1.549596
  N    -1.821077 -1.927358  0.416364
  N    -1.897182  2.478734  0.529349
  N    -2.746664 -0.934377  4.091845
  N    -2.408469  2.724923  4.324658
  S    -3.432233 -1.482843  2.634433
  S    -3.289817  2.500783  2.988806
  S    -0.275189 -1.265536  0.033084
  S    -0.347856  2.762919  0.080155
  S    -1.231858 -0.281227  3.956778
  S    -0.865996  3.232680  4.194684
