16  
    
  C    -0.786500 -0.779973  2.415410
  C    -0.852394  3.004636  2.435164
  C    -2.023038 -1.267743  1.688187
  C    -2.131816  2.744980  1.844564
  N     0.277631 -0.599977  1.674256
  N     0.162633  3.229108  1.585660
  N    -1.781332 -1.509656  0.435428
  N    -2.042675  2.614580  0.518492
  N    -2.707760 -0.868361  4.126467
  N    -2.584342  2.909695  4.426524
  S    -3.312870 -1.633189  2.781453
  S    -3.404143  2.648448  2.983271
  S    -0.176233 -1.061315  0.112810
  S    -0.447561  2.832764  0.094418
  S    -1.078896 -0.587590  4.108285
  S    -0.954310  3.373252  4.157432
