16  
    
  C    -4.936350 -2.528837  1.939967
  C    -5.341277  0.941336  1.761604
  C    -6.121525 -3.047446  1.276805
  C    -6.576438  0.576583  1.099532
  N    -3.860975 -2.515373  1.136022
  N    -4.321186  1.114070  0.949035
  N    -5.969673 -3.178518 -0.031705
  N    -6.455941  0.448664 -0.211694
  N    -6.820917 -2.554768  3.751425
  N    -7.193080  1.033524  3.659212
  S    -7.470283 -3.111440  2.335241
  S    -7.875643  0.610246  2.190120
  S    -4.396595 -2.938776 -0.371239
  S    -4.843366  0.837973 -0.590308
  S    -5.147935 -2.310418  3.649866
  S    -5.513740  1.341739  3.452759
