16  
    
  C    -4.242617 -1.955132  1.825266
  C    -4.169739  1.590648  1.834719
  C    -5.453671 -2.491500  1.210105
  C    -5.344189  0.911086  1.436505
  N    -3.211627 -1.878519  0.971049
  N    -3.174623  1.740157  0.993521
  N    -5.311435 -2.791512 -0.062721
  N    -5.315333  0.551455  0.187352
  N    -5.988127 -2.115174  3.736308
  N    -5.901324  1.780425  3.716606
  S    -6.781191 -2.315548  2.299813
  S    -6.657944  0.948143  2.519153
  S    -3.745003 -2.450856 -0.513070
  S    -3.823424  1.063847 -0.429315
  S    -4.510873 -1.468229  3.513761
  S    -4.293419  1.985616  3.539419
