16  
    
  C    -0.380943 -0.773345  2.740417
  C    -0.347212  3.320257  2.703462
  C    -1.718599 -1.164071  2.213178
  C    -1.467410  2.721779  2.065184
  N     0.515270 -0.546040  1.795867
  N     0.716744  3.527549  1.945211
  N    -1.738367 -1.445712  0.922651
  N    -1.184519  2.240299  0.868972
  N    -2.124410 -0.721489  4.699704
  N    -2.268597  3.049233  4.424810
  S    -3.008670 -1.108084  3.296097
  S    -2.800634  2.306862  3.091300
  S    -0.229903 -0.979301  0.329274
  S     0.285187  2.880764  0.455953
  S    -0.540952 -0.365887  4.402302
  S    -0.748263  3.698291  4.419150
