16  
    
  C     0.726690  0.458340  3.068237
  C     0.646641  3.790138  2.984030
  C    -0.516127  0.074555  2.406259
  C    -0.638895  3.297991  2.463316
  N     1.769445  0.518557  2.247939
  N     1.555372  4.111416  2.042167
  N    -0.428523 -0.127659  1.083664
  N    -0.496415  2.896197  1.212067
  N    -1.029336  0.269329  4.928273
  N    -1.155068  4.000958  4.864237
  S    -1.843081  0.261899  3.475755
  S    -1.989850  3.297175  3.556924
  S     1.185726  0.149354  0.733874
  S     1.056593  3.304626  0.703548
  S     0.637163  0.543614  4.811776
  S     0.457880  4.277439  4.620228
