16  
    
  C    -0.321217 -0.282798  2.575380
  C    -0.400640  3.301072  2.549301
  C    -1.493135 -0.773681  1.820463
  C    -1.592503  2.708166  1.979987
  N     0.757554 -0.028457  1.829874
  N     0.613117  3.368616  1.681866
  N    -1.222170 -1.063708  0.522952
  N    -1.557744  2.635399  0.644640
  N    -2.194323 -0.581229  4.328376
  N    -2.067750  3.213890  4.452458
  S    -2.904543 -1.003275  2.837584
  S    -2.888920  2.746523  3.134065
  S     0.352716 -0.516530  0.297308
  S     0.042508  2.978904  0.199882
  S    -0.591402 -0.080524  4.278065
  S    -0.456042  3.559678  4.276509
