16  
    
  C     2.002616  0.908568  3.005014
  C     2.193136  4.471848  3.069324
  C     0.776208  0.449317  2.428035
  C     1.060678  3.946224  2.284084
  N     3.023503  1.061370  2.197173
  N     3.330542  4.312971  2.427080
  N     0.888292  0.134942  1.149191
  N     1.280326  3.848164  0.977707
  N     0.257539  1.030611  4.851576
  N     0.241766  4.451828  4.703493
  S    -0.616687  0.715530  3.429371
  S    -0.385599  3.848198  3.227823
  S     2.495885  0.561916  0.691518
  S     2.991695  4.019421  0.815113
  S     1.841625  1.321892  4.669838
  S     1.885820  4.759560  4.754419
