16  
    
  C    -1.978821 -1.023442  2.060548
  C    -2.485697  2.532325  1.999695
  C    -3.149526 -1.710868  1.448707
  C    -3.776840  2.216808  1.452954
  N    -0.978229 -0.873715  1.218618
  N    -1.481910  2.623076  1.144458
  N    -3.073742 -1.707895  0.130778
  N    -3.711502  1.845103  0.176852
  N    -3.603016 -1.556136  3.959060
  N    -4.201802  2.474889  3.947325
  S    -4.389167 -2.061731  2.560827
  S    -5.044575  1.942613  2.622558
  S    -1.498535 -1.328594 -0.274094
  S    -2.166426  2.159442 -0.331194
  S    -2.128044 -0.845737  3.805623
  S    -2.641919  2.915525  3.704224
