16  
    
  C    -0.440244 -0.724927  2.696144
  C    -0.336232  3.305428  2.735382
  C    -1.639720 -1.256960  2.181879
  C    -1.466642  2.665500  2.097680
  N     0.575275 -0.728242  1.789908
  N     0.698193  3.468922  1.937736
  N    -1.697183 -1.391111  0.830657
  N    -1.282225  2.401274  0.807604
  N    -2.096777 -0.647635  4.640624
  N    -2.247316  3.047178  4.539508
  S    -2.899247 -1.177841  3.338177
  S    -2.830192  2.321183  3.103505
  S    -0.150565 -1.074090  0.362300
  S     0.252828  2.896896  0.443728
  S    -0.469569 -0.331348  4.437443
  S    -0.713942  3.671653  4.367316
