16  
    
  C    -1.432737 -1.128623  2.619111
  C    -1.525090  2.663032  2.280612
  C    -2.501115 -1.605143  1.767816
  C    -2.628978  2.090520  1.616162
  N    -0.352120 -0.895434  1.938378
  N    -0.368306  2.729141  1.607651
  N    -2.311248 -1.578429  0.489094
  N    -2.352571  1.853280  0.337643
  N    -3.334393 -1.672073  4.165850
  N    -3.450386  2.456215  4.036549
  S    -3.940254 -1.955802  2.648418
  S    -4.046861  1.770926  2.617234
  S    -0.684870 -1.174256  0.351898
  S    -0.803198  2.306692  0.062029
  S    -1.874911 -0.963222  4.291448
  S    -1.881371  3.043762  3.983709
