16  
    
  C     1.419134  0.902832  3.285077
  C     1.236076  4.285962  3.094542
  C     0.143172  0.384808  2.844712
  C    -0.037868  4.108874  2.448702
  N     2.384830  0.914778  2.385639
  N     2.239271  4.626957  2.239822
  N     0.202662 -0.060979  1.599951
  N     0.022240  3.982810  1.106999
  N    -0.266702  0.959274  5.280387
  N    -0.583240  4.173145  4.934179
  S    -1.176240  0.439597  4.006122
  S    -1.320921  3.692541  3.573597
  S     1.704172  0.237823  0.985643
  S     1.541875  4.427654  0.737702
  S     1.341391  1.177279  5.042429
  S     1.073748  4.532546  4.896505
