16  
    
  C    -5.911787 -2.957860  1.335131
  C    -6.003534  0.847106  1.332841
  C    -7.059182 -3.398059  0.592258
  C    -7.219954  0.642025  0.652894
  N    -4.773977 -2.979622  0.654289
  N    -4.944878  0.994585  0.540671
  N    -6.861184 -3.431135 -0.734056
  N    -7.060413  0.568607 -0.682918
  N    -7.729809 -3.358521  3.090911
  N    -7.812841  0.273838  3.151190
  S    -8.531541 -3.496028  1.636800
  S    -8.600671  0.279783  1.744769
  S    -5.187497 -3.259552 -0.965754
  S    -5.445383  0.802446 -1.027562
  S    -6.101326 -2.887723  3.048599
  S    -6.196704  0.642963  3.098094
