16  
    
  C    -5.828448 -3.091286  1.533110
  C    -6.155456  0.928386  1.410821
  C    -6.999615 -3.363180  0.753573
  C    -7.274711  0.176367  0.860888
  N    -4.659222 -2.996007  0.898827
  N    -5.261777  1.314962  0.537312
  N    -6.725841 -3.593279 -0.522892
  N    -7.324333  0.125521 -0.447357
  N    -7.649395 -3.363172  3.281042
  N    -7.562744  0.243577  3.367372
  S    -8.382399 -3.652307  1.847414
  S    -8.335226 -0.388819  2.047704
  S    -5.062040 -3.311866 -0.668968
  S    -5.889662  0.851869 -0.963437
  S    -6.031961 -2.862451  3.204591
  S    -6.055999  0.947930  3.163091
