16  
    
  C     2.171489  1.307035  3.410135
  C     2.249924  4.769337  3.243446
  C     0.995240  0.830823  2.739914
  C     1.041988  4.254255  2.584382
  N     3.172028  1.598834  2.625975
  N     3.313981  4.916106  2.447883
  N     1.156310  0.657919  1.432559
  N     1.024553  4.421242  1.247188
  N     0.520476  0.732859  5.308085
  N     0.613191  4.241874  5.096226
  S    -0.272955  0.490806  3.804987
  S    -0.146142  3.859291  3.729399
  S     2.782672  1.145277  1.119326
  S     2.639731  4.847647  0.955359
  S     2.118007  1.057380  5.121192
  S     2.218524  4.736661  4.974944
