16  
    
  C    -3.777754 -2.507481  1.666903
  C    -3.406752  1.808453  1.563601
  C    -5.061034 -2.440185  0.969026
  C    -4.504111  1.152186  0.982470
  N    -2.718186 -2.263209  0.847916
  N    -2.363014  1.817738  0.748798
  N    -5.001417 -2.425370 -0.372748
  N    -4.433930  0.897606 -0.353727
  N    -5.504095 -2.875205  3.493206
  N    -5.079619  1.444223  3.538585
  S    -6.357926 -2.708376  2.075427
  S    -5.843325  0.890092  2.182061
  S    -3.399495 -2.214803 -0.680676
  S    -2.856493  1.279193 -0.767934
  S    -3.897955 -2.618733  3.368864
  S    -3.588657  2.137500  3.323659
