16  
    
  C     2.608106  1.103326  3.397878
  C     2.947594  5.235776  3.642796
  C     1.458824  0.697341  2.676641
  C     1.610116  5.097981  3.099980
  N     3.651813  1.424666  2.612242
  N     3.912399  4.852521  2.802523
  N     1.643088  0.679579  1.362554
  N     1.581320  4.779730  1.790379
  N     0.686430  0.829030  5.119421
  N     1.320032  5.518393  5.693800
  S     0.132887  0.244732  3.693107
  S     0.398935  5.373975  4.337665
  S     3.212185  1.211190  1.121825
  S     3.176518  4.696186  1.340196
  S     2.301762  1.118264  5.129786
  S     2.949592  5.436291  5.418306
