16  
    
  C    -1.455344 -0.964713  2.503417
  C    -1.464182  2.664282  2.266571
  C    -2.490199 -1.590729  1.705705
  C    -2.523786  1.951987  1.524857
  N    -0.315725 -0.724338  1.801720
  N    -0.513790  3.002960  1.433475
  N    -2.194475 -1.653720  0.381615
  N    -2.266684  1.658447  0.263690
  N    -3.412759 -1.411160  4.111588
  N    -3.404739  2.470286  3.915518
  S    -4.003868 -1.899391  2.626330
  S    -3.924319  1.711274  2.521564
  S    -0.632022 -1.048641  0.197746
  S    -0.817316  2.351002 -0.047380
  S    -1.834804 -1.039888  4.159275
  S    -1.842161  3.017480  3.914522
