16  
    
  C    -5.014689 -2.559506  1.917111
  C    -5.432109  1.213110  1.632389
  C    -6.315341 -2.824703  1.299623
  C    -6.698130  0.916148  0.931533
  N    -4.012276 -2.490943  1.039636
  N    -4.394562  1.079182  0.836497
  N    -6.188485 -3.234838  0.036130
  N    -6.692745  0.739864 -0.371673
  N    -6.863976 -2.324560  3.801938
  N    -7.190472  1.082218  3.468029
  S    -7.690372 -2.740709  2.416613
  S    -8.019662  0.818853  2.084194
  S    -4.585061 -3.100227 -0.365778
  S    -4.989935  0.800426 -0.723294
  S    -5.206807 -2.183641  3.603243
  S    -5.539045  1.259199  3.398336
