16  
    
  C    -1.028350 -0.755671  2.200386
  C    -0.768797  2.966073  2.522587
  C    -2.207289 -1.291011  1.644767
  C    -2.001537  2.471369  1.915753
  N     0.063866 -0.697062  1.466669
  N     0.314373  2.987997  1.723323
  N    -2.069519 -1.698810  0.429823
  N    -1.855527  2.504566  0.572377
  N    -2.909577 -0.638585  4.023252
  N    -2.487420  2.849484  4.345073
  S    -3.517460 -1.597799  2.794376
  S    -3.309802  2.429595  3.013415
  S    -0.436837 -1.326114 -0.008336
  S    -0.257576  2.705531  0.210506
  S    -1.265562 -0.254420  3.888196
  S    -0.938384  3.278528  4.227014
