16  
    
  C    -1.180758 -0.544159  2.309558
  C    -1.177647  2.945571  2.303665
  C    -2.344595 -1.075355  1.612278
  C    -2.456221  2.932659  1.695713
  N    -0.148613 -0.359324  1.453375
  N    -0.194099  2.977062  1.418019
  N    -2.308627 -1.057106  0.268498
  N    -2.470883  2.716262  0.384465
  N    -2.953295 -0.790238  4.145342
  N    -2.877773  3.169752  4.225479
  S    -3.626966 -1.394187  2.748203
  S    -3.782546  2.766240  2.892086
  S    -0.741165 -0.559316 -0.067892
  S    -0.893149  2.851791 -0.059278
  S    -1.378583 -0.180649  3.963575
  S    -1.246976  3.278427  3.977055
