16  
    
  C     2.033587  0.818929  3.069230
  C     2.184233  4.613324  3.011776
  C     0.776669  0.669607  2.412793
  C     1.071996  3.930799  2.342912
  N     3.088679  0.580435  2.277730
  N     3.298173  4.515409  2.289680
  N     0.823686  0.420374  1.113890
  N     1.253911  3.618067  1.058027
  N     0.241028  1.008962  4.907606
  N     0.232969  4.364941  4.718541
  S    -0.557240  0.592533  3.515607
  S    -0.427807  3.976289  3.284562
  S     2.488788  0.240969  0.763048
  S     2.810412  4.055021  0.763906
  S     1.924720  1.262822  4.763256
  S     1.883993  4.833762  4.774409
