16  
    
  C    -5.698767 -2.975346  1.473825
  C    -6.068336  0.978467  1.462894
  C    -6.868116 -3.544986  0.833334
  C    -7.200326  0.243712  0.901050
  N    -4.674436 -2.855817  0.620209
  N    -5.134960  1.346800  0.558030
  N    -6.803897 -3.636332 -0.497107
  N    -7.211827  0.089481 -0.439864
  N    -7.519690 -3.574464  3.300522
  N    -7.468197  0.168763  3.490997
  S    -8.205612 -3.823882  1.834140
  S    -8.305687 -0.324231  2.181503
  S    -5.254157 -3.282419 -0.874189
  S    -5.756789  0.789382 -0.939052
  S    -6.048654 -2.770789  3.235494
  S    -6.102013  0.987471  3.180134
