16  
    
  C     2.792405  1.559241  3.471479
  C     2.835134  5.259235  3.270851
  C     1.605504  0.912636  2.989266
  C     1.705529  4.608602  2.711128
  N     3.805178  1.691848  2.611680
  N     3.859253  5.531168  2.497609
  N     1.723478  0.629865  1.708653
  N     1.846105  4.405012  1.413590
  N     1.288725  1.219136  5.529223
  N     1.269296  4.753938  5.285577
  S     0.436299  0.630725  4.220079
  S     0.477605  4.250267  3.892315
  S     3.296651  1.052111  1.240620
  S     3.315601  5.089521  0.994832
  S     2.675195  2.017820  5.104725
  S     2.776433  5.480384  4.999664
