16  
    
  C    -1.187117 -0.551555  2.285798
  C    -1.175241  2.971771  2.314993
  C    -2.314432 -1.125969  1.616430
  C    -2.465833  2.938058  1.698049
  N    -0.132868 -0.362537  1.492582
  N    -0.194725  2.960543  1.431904
  N    -2.306176 -1.046287  0.286469
  N    -2.454440  2.699176  0.389284
  N    -2.946611 -0.799029  4.170457
  N    -2.871708  3.178567  4.209993
  S    -3.615774 -1.398057  2.745528
  S    -3.794650  2.782711  2.895875
  S    -0.711929 -0.535905 -0.065827
  S    -0.873763  2.835888 -0.048154
  S    -1.374202 -0.189779  3.987684
  S    -1.256072  3.269599  3.980949
