16  
    
  C    -4.324490 -1.724536  1.954144
  C    -4.158037  1.571262  1.885961
  C    -5.452421 -2.357520  1.333302
  C    -5.455470  1.098892  1.331951
  N    -3.276194 -1.724507  1.140125
  N    -3.167129  1.652575  1.001038
  N    -5.325303 -2.718646  0.073249
  N    -5.359088  0.731956  0.066115
  N    -5.946344 -2.180559  3.780631
  N    -5.822362  1.608505  3.825977
  S    -6.894393 -2.328110  2.404680
  S    -6.646251  0.957780  2.572317
  S    -3.762070 -2.342019 -0.335333
  S    -3.792338  1.043431 -0.479976
  S    -4.409836 -1.537811  3.648283
  S    -4.222079  1.865102  3.647405
