16  
    
  C    -1.408797 -1.128725  2.622117
  C    -1.556714  2.625492  2.409710
  C    -2.509430 -1.549773  1.836122
  C    -2.704565  2.217629  1.592121
  N    -0.266925 -0.952161  1.958734
  N    -0.456571  2.733251  1.656138
  N    -2.266956 -1.562532  0.541010
  N    -2.450609  1.893437  0.309645
  N    -3.407835 -1.758348  4.257645
  N    -3.458793  2.472932  4.034406
  S    -3.990428 -1.972317  2.713388
  S    -4.045764  1.833827  2.627205
  S    -0.693714 -1.202254  0.357341
  S    -0.811797  2.251976  0.098035
  S    -1.888169 -0.991380  4.309829
  S    -1.889083  3.027674  4.033159
