16  
    
  C    -2.507449 -1.955287  1.943964
  C    -3.172998  2.204347  1.713347
  C    -3.834179 -1.990222  1.357961
  C    -4.239130  1.529166  1.015400
  N    -1.518807 -1.910141  1.031354
  N    -2.103523  2.378720  0.949705
  N    -3.815898 -2.214631  0.042333
  N    -4.051378  1.364854 -0.285373
  N    -4.295951 -1.657627  3.829005
  N    -4.992898  1.599636  3.415548
  S    -5.121087 -1.839332  2.451767
  S    -5.505777  0.959766  1.995853
  S    -2.211946 -2.170092 -0.475033
  S    -2.487786  1.926863 -0.566839
  S    -2.629715 -1.525318  3.686120
  S    -3.461583  2.202994  3.427846
