16  
    
  C    -0.106204  0.045711  2.497055
  C    -0.012133  3.583012  2.441331
  C    -1.418624 -0.470073  2.048388
  C    -1.243676  3.117360  1.890868
  N     0.825632  0.217074  1.571633
  N     0.915784  3.951455  1.536607
  N    -1.381816 -0.781223  0.777969
  N    -1.114802  2.727793  0.599619
  N    -1.659046 -0.328217  4.594604
  N    -1.712645  3.511651  4.369010
  S    -2.645774 -0.743403  3.281796
  S    -2.524067  2.951822  2.979208
  S     0.090712 -0.394174  0.193531
  S     0.445542  3.176127  0.141516
  S    -0.074061 -0.055226  4.235252
  S    -0.179833  4.029879  4.142469
