16  
    
  C    -4.169570 -2.008019  1.860655
  C    -4.172037  1.396793  1.749487
  C    -5.535961 -2.224472  1.381178
  C    -5.383022  1.212352  1.068544
  N    -3.232787 -2.043433  0.932889
  N    -3.065431  1.303739  1.005161
  N    -5.593359 -2.482586  0.083870
  N    -5.235322  1.146076 -0.238101
  N    -5.670966 -2.250060  3.933201
  N    -6.071519  1.551749  3.530565
  S    -6.658214 -2.280211  2.628269
  S    -6.837690  1.261590  2.097329
  S    -4.033347 -2.433253 -0.433232
  S    -3.593544  1.153215 -0.528893
  S    -4.066654 -2.047320  3.619341
  S    -4.445104  1.536507  3.501462
