16  
    
  C     2.205696  1.142335  3.450195
  C     2.281115  4.671300  3.167494
  C     0.995864  0.726498  2.825243
  C     1.014409  4.277937  2.562892
  N     3.213941  1.348749  2.570683
  N     3.257151  4.969063  2.300981
  N     1.065237  0.649701  1.500863
  N     0.995146  4.453795  1.253791
  N     0.493957  0.805546  5.388157
  N     0.575430  4.259161  5.064233
  S    -0.365320  0.472528  3.910710
  S    -0.313919  3.946108  3.740397
  S     2.642718  1.059019  1.078175
  S     2.539679  4.965805  0.796712
  S     2.081635  1.298504  5.148433
  S     2.136280  4.724436  4.922015
