16  
    
  C    -1.863763 -0.975144  2.105185
  C    -1.794012  2.276514  1.983305
  C    -3.158566 -1.251392  1.532867
  C    -3.029499  2.017736  1.270265
  N    -0.849988 -0.931503  1.279138
  N    -0.702123  2.463280  1.209900
  N    -3.108108 -1.521503  0.261636
  N    -2.797159  1.829144 -0.042913
  N    -3.504430 -1.004325  4.049314
  N    -3.654885  1.967105  3.798195
  S    -4.453551 -1.194572  2.681724
  S    -4.392738  1.919961  2.300618
  S    -1.536172 -1.309616 -0.203631
  S    -1.165920  2.098427 -0.313129
  S    -1.844016 -0.949037  3.883313
  S    -2.023178  2.400369  3.731979
