16  
    
  C    -0.106437 -0.479567  2.800572
  C     0.193580  3.266190  2.364055
  C    -1.308968 -0.858617  2.036415
  C    -1.021537  2.989033  1.711395
  N     0.943865 -0.150684  2.060832
  N     1.192497  3.714832  1.569387
  N    -1.065955 -1.010215  0.760500
  N    -0.960090  2.968990  0.370943
  N    -2.139048 -0.640495  4.419587
  N    -1.537511  2.843170  4.232185
  S    -2.726625 -1.187911  2.941838
  S    -2.338929  2.618000  2.757141
  S     0.467858 -0.451401  0.457944
  S     0.577315  3.383057  0.007912
  S    -0.539807 -0.264218  4.397865
  S    -0.017623  3.459353  4.146565
