16  
    
  C    -0.111186 -0.715617  2.650891
  C    -0.286410  3.224425  2.641542
  C    -1.380997 -1.072483  2.061611
  C    -1.527244  2.700867  2.098689
  N     0.862624 -0.586757  1.725328
  N     0.641273  3.456138  1.719760
  N    -1.362886 -1.538757  0.784623
  N    -1.464035  2.482861  0.800810
  N    -1.832808 -0.678604  4.558562
  N    -1.987300  2.861464  4.558516
  S    -2.633886 -1.200825  3.201922
  S    -2.824643  2.523261  3.203084
  S     0.239810 -1.195887  0.291675
  S     0.042963  2.906054  0.281445
  S    -0.176468 -0.298232  4.369662
  S    -0.423236  3.366436  4.401426
