16  
    
  C    -1.983547 -1.029755  2.328956
  C    -2.280734  2.541813  1.941575
  C    -3.234381 -1.393560  1.628132
  C    -3.507534  2.063720  1.380679
  N    -1.046416 -0.739168  1.457086
  N    -1.268443  2.557052  1.056233
  N    -3.112971 -1.728863  0.376339
  N    -3.492556  1.752321  0.085020
  N    -3.886065 -1.105009  4.075806
  N    -3.917969  2.384716  3.950402
  S    -4.647847 -1.449037  2.588287
  S    -4.772908  2.000289  2.549631
  S    -1.572472 -1.291520 -0.016723
  S    -1.944082  2.070155 -0.422375
  S    -2.264478 -0.791584  3.985315
  S    -2.290443  2.718319  3.680329
