16  
    
  C    -4.619760 -2.180714  1.504201
  C    -4.438631  1.352984  1.963191
  C    -5.711411 -2.651400  0.743225
  C    -5.606731  0.794703  1.334159
  N    -3.570899 -1.786834  0.787157
  N    -3.553549  1.800613  1.089157
  N    -5.453836 -2.805422 -0.564729
  N    -5.547684  0.733860  0.001521
  N    -6.439077 -2.919466  3.211936
  N    -5.975995  0.867435  3.821471
  S    -7.049793 -3.320035  1.741476
  S    -6.771884  0.349364  2.470462
  S    -3.974019 -2.158949 -0.834048
  S    -4.150015  1.421677 -0.389933
  S    -4.886791 -2.432418  3.186919
  S    -4.405902  1.432144  3.637311
