16  
    
  C     1.796975  0.472320  3.131265
  C     2.069649  4.265662  3.335612
  C     0.561371  0.168692  2.397419
  C     0.718657  4.016926  2.719577
  N     2.823295  0.695937  2.330041
  N     3.012158  4.838292  2.520492
  N     0.687823  0.253317  1.078986
  N     0.864513  4.067891  1.378136
  N     0.006534  0.085549  4.976168
  N     0.251019  3.992992  5.171455
  S    -0.789284 -0.211940  3.434955
  S    -0.596096  3.685587  3.828772
  S     2.230952  0.631124  0.783388
  S     2.367233  4.568945  1.014208
  S     1.639587  0.579303  4.876638
  S     1.884381  4.376979  5.096165
