16  
    
  C    -4.236013 -2.194001  2.061584
  C    -4.177361  1.352757  1.893260
  C    -5.518189 -2.533543  1.509288
  C    -5.454175  1.231214  1.252793
  N    -3.249169 -2.111290  1.168245
  N    -3.073015  1.470316  1.146736
  N    -5.581409 -2.438610  0.177517
  N    -5.331075  1.040670 -0.049629
  N    -5.820845 -2.081749  4.045139
  N    -6.016118  1.458603  3.639099
  S    -6.739538 -2.399794  2.711621
  S    -6.817968  1.176770  2.236585
  S    -3.986851 -2.161772 -0.320651
  S    -3.681276  1.194044 -0.405234
  S    -4.233234 -1.891696  3.739383
  S    -4.360160  1.538689  3.587278
