16  
    
  C     1.767290  0.555203  3.026842
  C     1.877345  4.256642  3.323016
  C     0.487916  0.179388  2.439263
  C     0.629390  3.963506  2.714672
  N     2.715906  0.765879  2.171727
  N     2.933866  4.343379  2.540171
  N     0.504558  0.024390  1.138291
  N     0.659858  4.236349  1.420096
  N     0.183264  0.315743  4.946097
  N     0.160361  3.927256  5.227250
  S    -0.763309  0.088985  3.645704
  S    -0.729268  3.828939  3.808794
  S     2.104478  0.452418  0.668155
  S     2.343367  4.278846  0.954261
  S     1.860145  0.535504  4.746374
  S     1.826563  4.241186  5.023855
