16  
    
  C    -1.613497 -1.233848  2.692861
  C    -1.742083  2.573868  2.384582
  C    -2.768419 -1.513949  1.921037
  C    -2.981011  2.136018  1.735839
  N    -0.603322 -0.864934  1.912695
  N    -0.664194  2.634749  1.601288
  N    -2.620147 -1.667925  0.596130
  N    -2.811278  2.068975  0.427700
  N    -3.487391 -1.561394  4.425658
  N    -3.582035  2.343016  4.227804
  S    -4.157531 -1.769780  2.909484
  S    -4.389026  2.148932  2.778958
  S    -1.019998 -1.206906  0.358417
  S    -1.259187  2.385267  0.071857
  S    -1.872919 -1.080281  4.403016
  S    -1.932740  2.654917  4.155929
