16  
    
  C    -3.974660 -1.900645  1.716896
  C    -3.733189  1.763051  1.770869
  C    -5.180324 -2.335244  1.024451
  C    -5.004273  1.337038  1.202889
  N    -2.943113 -1.680678  0.936421
  N    -2.680771  1.838586  0.959692
  N    -4.962298 -2.635087 -0.258659
  N    -4.970388  1.362785 -0.112121
  N    -5.839636 -1.937161  3.529773
  N    -5.486782  1.588848  3.708291
  S    -6.498415 -2.449138  2.110711
  S    -6.333743  1.162570  2.337744
  S    -3.369796 -2.149437 -0.607641
  S    -3.366148  1.623463 -0.617638
  S    -4.275282 -1.494133  3.383350
  S    -3.856746  1.740268  3.561927
