16  
    
  C    -2.870373 -1.771347  2.010685
  C    -2.727549  2.263290  1.990185
  C    -4.025456 -2.192717  1.297432
  C    -3.936779  1.946838  1.284262
  N    -1.772995 -1.579274  1.271575
  N    -1.665018  2.304403  1.186742
  N    -3.821375 -2.375092 -0.002869
  N    -3.830150  1.962005 -0.040867
  N    -4.765627 -2.198777  3.691583
  N    -4.560742  1.896955  3.817156
  S    -5.497701 -2.515824  2.198787
  S    -5.317794  1.755305  2.306759
  S    -2.263842 -1.868316 -0.311087
  S    -2.156590  2.107972 -0.373966
  S    -3.168511 -1.686767  3.679880
  S    -2.943805  2.450120  3.748971
