16  
    
  C    -5.246356 -2.427262  1.763270
  C    -5.317209  1.271864  1.482085
  C    -6.499537 -2.678216  1.117396
  C    -6.621870  0.937970  0.883769
  N    -4.235233 -2.305179  0.876094
  N    -4.272537  1.184117  0.632189
  N    -6.391120 -2.969426 -0.198814
  N    -6.558615  0.677782 -0.411037
  N    -6.988435 -2.412450  3.632144
  N    -7.053253  1.109715  3.338417
  S    -7.829305 -2.742460  2.255929
  S    -7.971876  0.831760  1.981564
  S    -4.848468 -2.623809 -0.608001
  S    -4.947728  0.766433 -0.846144
  S    -5.430235 -1.921325  3.417157
  S    -5.492772  1.321872  3.165469
