16  
    
  C    -3.521960 -2.406452  1.950190
  C    -3.706099  1.979171  1.844492
  C    -4.633704 -2.950292  1.242596
  C    -4.692925  1.059293  1.282391
  N    -2.499406 -2.230969  1.144660
  N    -2.727303  2.338086  1.004178
  N    -4.395297 -3.297760 -0.033546
  N    -4.409696  0.753630  0.024048
  N    -5.366720 -2.479214  3.617445
  N    -5.455089  1.378063  3.768022
  S    -5.991952 -3.305690  2.264259
  S    -5.935352  0.567138  2.416083
  S    -2.858581 -2.790679 -0.342630
  S    -2.984452  1.519189 -0.414045
  S    -3.770760 -2.101449  3.616231
  S    -4.089391  2.291987  3.523835
