16  
    
  C     2.035868  0.850693  3.005270
  C     2.215189  4.331272  3.038539
  C     0.770875  0.487182  2.392239
  C     1.058729  4.001091  2.267814
  N     3.095690  0.861415  2.203906
  N     3.386024  4.448714  2.365465
  N     0.901841  0.186350  1.095092
  N     1.343689  3.855581  0.966641
  N     0.159585  0.973117  4.929045
  N     0.242905  4.379139  4.675993
  S    -0.601423  0.716835  3.469917
  S    -0.393186  3.912277  3.309554
  S     2.488209  0.466848  0.719853
  S     2.951031  4.022492  0.841110
  S     1.849484  1.335144  4.642970
  S     1.829329  4.803252  4.709187
