16  
    
  C    -5.092137 -2.369624  1.867874
  C    -5.396762  1.015514  1.599685
  C    -6.343086 -2.856134  1.308053
  C    -6.661277  0.877012  0.980682
  N    -4.039025 -2.521539  1.058830
  N    -4.361655  1.090039  0.764275
  N    -6.283089 -3.147155  0.011126
  N    -6.558745  0.675868 -0.307831
  N    -6.877964 -2.084459  3.710912
  N    -7.187400  1.079701  3.504548
  S    -7.704764 -2.757559  2.389903
  S    -8.068054  0.907918  2.042432
  S    -4.678098 -3.020953 -0.452074
  S    -5.035801  0.891065 -0.726244
  S    -5.231416 -2.167986  3.629141
  S    -5.521335  1.308813  3.280744
