16  
    
  C     2.937055  1.601106  3.452769
  C     2.917251  5.298512  3.221117
  C     1.758683  0.960293  2.946344
  C     1.806143  4.459736  2.728093
  N     3.869762  1.774756  2.533542
  N     3.839529  5.555238  2.277416
  N     1.815253  0.643848  1.653009
  N     1.799910  4.335339  1.401275
  N     1.154582  1.387697  5.409223
  N     1.334061  4.653606  5.239469
  S     0.489649  0.633181  4.044571
  S     0.513781  4.169723  3.873150
  S     3.285703  1.151739  1.104108
  S     3.258761  4.851805  0.848680
  S     2.722292  1.922803  5.178759
  S     2.759061  5.502524  4.967907
