16  
    
  C     3.115212  1.586334  3.713951
  C     3.145545  5.197905  3.403112
  C     1.942284  1.105810  3.032979
  C     1.942708  4.681773  2.730553
  N     4.196161  1.835286  2.990817
  N     4.275620  5.177670  2.693821
  N     2.178360  0.824591  1.759043
  N     2.171563  4.473404  1.425805
  N     1.308568  1.661427  5.478568
  N     1.354464  4.931305  5.224162
  S     0.592144  1.144509  4.096002
  S     0.628801  4.478599  3.825025
  S     3.742834  1.302792  1.419281
  S     3.748697  4.821372  1.123995
  S     2.940515  1.812066  5.415735
  S     2.996407  5.262721  5.092628
