16  
    
  C    -2.171045 -1.116760  2.148589
  C    -2.697823  2.538629  2.316392
  C    -3.303480 -1.778870  1.512522
  C    -3.766849  1.853071  1.699003
  N    -1.295163 -0.636769  1.212465
  N    -1.781145  2.891930  1.426357
  N    -3.199937 -2.002766  0.177934
  N    -3.738593  1.701708  0.384216
  N    -4.031969 -1.579584  3.960640
  N    -4.393511  2.206617  4.212476
  S    -4.553083 -2.354322  2.595373
  S    -5.087423  1.572737  2.802645
  S    -1.870780 -1.175928 -0.300213
  S    -2.294572  2.394191 -0.052555
  S    -2.469056 -1.008041  3.860755
  S    -2.870458  2.876908  4.015104
