16  
    
  C    -3.456087 -2.174110  1.857725
  C    -3.743985  1.936390  1.935221
  C    -4.530365 -2.897875  1.237504
  C    -4.724325  1.059413  1.311055
  N    -2.368114 -2.015147  1.130084
  N    -2.806350  2.369693  1.115447
  N    -4.234840 -3.260006 -0.008024
  N    -4.350447  0.797425  0.072877
  N    -5.241361 -2.452740  3.685026
  N    -5.543106  1.366640  3.761113
  S    -5.919382 -2.952100  2.275206
  S    -6.005205  0.504491  2.346378
  S    -2.705194 -2.671933 -0.370590
  S    -2.994603  1.682491 -0.342834
  S    -3.692720 -1.795285  3.601141
  S    -4.235323  2.395053  3.556813
