16  
    
  C    -4.625461 -2.207271  1.501397
  C    -4.455907  1.398475  1.902993
  C    -5.774233 -2.625546  0.738565
  C    -5.592646  0.768699  1.344521
  N    -3.586449 -1.784018  0.789455
  N    -3.513584  1.811539  1.084128
  N    -5.494086 -2.795463 -0.579272
  N    -5.537048  0.764838  0.004615
  N    -6.447500 -2.906954  3.227131
  N    -6.005415  0.870869  3.854921
  S    -7.065429 -3.324712  1.726298
  S    -6.783191  0.317993  2.453482
  S    -3.989162 -2.148466 -0.825914
  S    -4.144311  1.403805 -0.375464
  S    -4.865824 -2.412891  3.202191
  S    -4.411995  1.390433  3.623434
