16  
    
  C    -2.959492 -1.752029  2.254612
  C    -3.312947  1.729342  2.019785
  C    -4.250876 -1.838216  1.603508
  C    -4.633216  1.392314  1.459012
  N    -1.926914 -1.761546  1.414853
  N    -2.358980  1.941540  1.102434
  N    -4.226027 -1.925249  0.278010
  N    -4.639374  1.270273  0.118257
  N    -4.771832 -1.937515  4.098817
  N    -4.924375  1.376633  4.068174
  S    -5.614499 -1.938221  2.698951
  S    -5.835189  1.073691  2.717860
  S    -2.637410 -1.926422 -0.087060
  S    -3.141798  1.698482 -0.436675
  S    -3.123756 -1.660808  3.957867
  S    -3.321157  1.876326  3.840387
