16  
    
  C    -4.222691 -2.205694  2.100530
  C    -4.155662  1.391126  1.926795
  C    -5.540323 -2.383138  1.468730
  C    -5.374061  1.154915  1.226300
  N    -3.242602 -2.061308  1.197443
  N    -3.111121  1.418336  1.107397
  N    -5.518663 -2.435325  0.152330
  N    -5.284883  1.043796 -0.103658
  N    -5.911550 -1.991365  4.008178
  N    -6.013714  1.419214  3.815601
  S    -6.806485 -2.472252  2.656406
  S    -6.772292  1.129780  2.338832
  S    -3.976597 -2.158460 -0.281220
  S    -3.718858  1.193150 -0.446130
  S    -4.228102 -1.810346  3.783915
  S    -4.356252  1.605639  3.646871
