16  
    
  C    -3.977431 -2.108551  1.701363
  C    -4.004298  1.581994  1.689665
  C    -5.283309 -2.283034  1.120019
  C    -5.292835  1.243146  1.037181
  N    -2.964661 -2.007606  0.875751
  N    -2.950206  1.480475  0.928418
  N    -5.217434 -2.471752 -0.201225
  N    -5.170663  1.121957 -0.282137
  N    -5.757502 -1.806834  3.578605
  N    -5.731719  1.593453  3.496347
  S    -6.658179 -2.284667  2.250003
  S    -6.572209  1.349978  2.091609
  S    -3.642475 -2.263207 -0.659888
  S    -3.588985  1.170556 -0.618219
  S    -4.078441 -1.728245  3.439437
  S    -4.054273  1.663699  3.420248
