16  
    
  C    -3.926552 -1.893738  1.720485
  C    -3.696328  1.739653  1.821699
  C    -5.131326 -2.436487  1.104396
  C    -4.925315  1.487608  1.192673
  N    -2.884087 -1.670552  0.915537
  N    -2.746145  1.974498  0.919382
  N    -4.956682 -2.552918 -0.226583
  N    -4.892731  1.350259 -0.151630
  N    -5.856423 -1.885724  3.488831
  N    -5.500551  1.619283  3.764364
  S    -6.549408 -2.594766  2.135557
  S    -6.252870  1.110286  2.355922
  S    -3.422369 -2.106056 -0.597359
  S    -3.328118  1.723456 -0.585249
  S    -4.220672 -1.525166  3.398749
  S    -3.828484  1.774288  3.592522
