16  
    
  C     2.317754  1.290136  3.423968
  C     2.336985  4.768854  3.316939
  C     1.147757  0.807664  2.735072
  C     1.095673  4.473125  2.654705
  N     3.313404  1.641915  2.621414
  N     3.308129  5.019223  2.460727
  N     1.278777  0.708645  1.406151
  N     1.235188  4.298084  1.350340
  N     0.465513  0.645367  5.226863
  N     0.622361  4.250118  5.172711
  S    -0.257078  0.479069  3.753373
  S    -0.148608  3.834421  3.734644
  S     2.764984  1.213916  1.053816
  S     2.733165  4.771366  0.900494
  S     2.124038  0.994753  5.150257
  S     2.173497  4.706957  5.039901
