16  
    
  C     3.784514  1.941782  3.729542
  C     3.578380  5.222452  3.566591
  C     2.627379  1.517766  2.943658
  C     2.359667  4.979460  2.892521
  N     4.837204  2.183213  2.966879
  N     4.578832  5.625073  2.766469
  N     2.790291  1.360237  1.606586
  N     2.446375  4.978219  1.559769
  N     1.833273  1.831942  5.462604
  N     1.796627  5.127441  5.508693
  S     1.201136  1.616474  3.901075
  S     1.002994  4.864630  4.062312
  S     4.393251  1.939887  1.389816
  S     4.063052  5.370351  1.230640
  S     3.456871  2.279845  5.412329
  S     3.399292  5.428768  5.302943
