16  
    
  C    -4.197168 -2.318676  1.635981
  C    -4.328902  1.755528  1.920521
  C    -5.406025 -2.733425  1.035009
  C    -5.479680  1.088318  1.280615
  N    -3.175204 -2.309838  0.755491
  N    -3.207291  1.714993  1.203707
  N    -5.341195 -3.074380 -0.240267
  N    -5.196776  0.703266  0.034265
  N    -5.979555 -2.207798  3.518343
  N    -6.071068  1.486713  3.678746
  S    -6.791180 -2.729179  2.163655
  S    -6.834298  0.987563  2.256176
  S    -3.797532 -2.802955 -0.723044
  S    -3.623787  0.980769 -0.256182
  S    -4.303937 -1.893689  3.331681
  S    -4.505068  2.139879  3.615337
