16  
    
  C    -1.366215 -0.570171  1.836389
  C    -1.218049  3.339611  2.115403
  C    -2.585827 -1.252387  1.469883
  C    -2.399516  2.774915  1.591829
  N    -0.512039 -0.551260  0.817910
  N    -0.298677  3.657169  1.205155
  N    -2.766638 -1.409753  0.159625
  N    -2.387537  2.547019  0.270469
  N    -2.797864 -0.541100  4.013782
  N    -2.764518  2.915574  4.087482
  S    -3.698175 -1.364565  2.834235
  S    -3.566158  2.307282  2.785939
  S    -1.329060 -1.034732 -0.525514
  S    -0.976730  3.255974 -0.261905
  S    -1.245716 -0.156914  3.531406
  S    -1.261659  3.551074  3.843236
