16  
    
  C    -4.308435 -1.735424  1.921609
  C    -4.180580  1.545513  1.869501
  C    -5.479386 -2.388617  1.343208
  C    -5.456665  1.108830  1.334714
  N    -3.252399 -1.726827  1.125723
  N    -3.169886  1.680770  0.980117
  N    -5.294354 -2.741418  0.059916
  N    -5.315409  0.694547  0.060479
  N    -5.961340 -2.195566  3.760896
  N    -5.831333  1.649141  3.835720
  S    -6.890011 -2.313231  2.392738
  S    -6.643298  0.955112  2.578966
  S    -3.764943 -2.345342 -0.342873
  S    -3.799000  1.039228 -0.494019
  S    -4.416355 -1.523752  3.622506
  S    -4.227325  1.879649  3.663964
