16  
    
  C     0.655932  0.200031  3.147375
  C     0.697095  3.977632  2.960333
  C    -0.651827  0.149019  2.427390
  C    -0.509795  3.395618  2.341669
  N     1.674819  0.211607  2.273421
  N     1.755914  4.030760  2.137561
  N    -0.608725  0.011175  1.092882
  N    -0.423783  3.315601  1.032791
  N    -1.092604  0.197630  4.964908
  N    -1.033501  3.768937  4.819103
  S    -1.961033  0.198631  3.538562
  S    -1.808552  3.168736  3.434699
  S     1.031290  0.082705  0.755810
  S     1.206781  3.422334  0.636314
  S     0.556695  0.523815  4.871244
  S     0.479594  4.316754  4.616861
