16  
    
  C     1.595010  0.825960  3.257046
  C     2.033190  4.590657  3.252720
  C     0.543644  0.192611  2.499103
  C     0.870374  3.974118  2.683654
  N     2.618510  1.188051  2.527477
  N     3.088147  4.659749  2.391047
  N     0.855393  0.068398  1.189822
  N     0.920497  3.974268  1.333058
  N    -0.207068  0.394706  4.974941
  N     0.251152  4.315394  5.203037
  S    -0.890720 -0.080933  3.512574
  S    -0.529164  3.750951  3.858709
  S     2.363259  0.730446  0.961587
  S     2.449173  4.283582  0.920267
  S     1.262807  1.038324  4.981817
  S     1.840970  4.945141  4.951277
