16  
    
  C     2.073461  0.586677  3.223831
  C     2.029015  4.400396  3.036252
  C     0.761770  0.255577  2.657293
  C     0.768627  3.897872  2.458129
  N     3.020863  0.715210  2.299384
  N     3.066988  4.301258  2.178933
  N     0.780486  0.015955  1.369647
  N     0.804208  3.857804  1.102385
  N     0.409692  0.729855  5.124428
  N     0.292675  4.260124  4.992483
  S    -0.493694  0.613140  3.777818
  S    -0.550174  3.961550  3.561375
  S     2.279488  0.359474  0.881833
  S     2.351786  3.918626  0.740423
  S     2.047428  0.869416  4.920878
  S     1.846913  4.768462  4.741350
