16  
    
  C    -2.853706 -1.509508  2.015908
  C    -2.420407  1.950117  2.017017
  C    -4.055299 -2.114542  1.443076
  C    -3.708878  1.911854  1.429093
  N    -1.872596 -1.366757  1.108954
  N    -1.436711  1.928323  1.137105
  N    -4.053212 -2.132589  0.105430
  N    -3.733319  1.634673  0.129700
  N    -4.520679 -2.036342  3.923370
  N    -4.051155  2.217067  3.938757
  S    -5.338167 -2.537266  2.574499
  S    -4.981414  2.117339  2.581041
  S    -2.558888 -1.631656 -0.373610
  S    -2.093643  1.619394 -0.315453
  S    -2.903606 -1.591908  3.726856
  S    -2.424867  2.385634  3.769831
