16  
    
  C     1.801232  0.605889  3.007817
  C     1.943129  4.239500  3.367242
  C     0.522392  0.234827  2.424757
  C     0.699350  4.199362  2.660009
  N     2.783357  0.832095  2.156708
  N     2.965235  4.364524  2.534385
  N     0.614466  0.112238  1.102473
  N     0.734972  4.125755  1.315960
  N     0.110666  0.352771  5.037893
  N     0.164960  3.950487  5.228505
  S    -0.789153 -0.040600  3.578165
  S    -0.601764  3.718014  3.811644
  S     2.122148  0.479454  0.665395
  S     2.309349  4.435031  1.013502
  S     1.737788  0.438228  4.760012
  S     1.805553  4.283532  5.131744
