16  
    
  C    -2.829016 -1.731042  2.025325
  C    -2.411455  2.251211  1.984332
  C    -4.055565 -2.118512  1.344372
  C    -3.687509  1.932638  1.458829
  N    -1.947881 -1.248435  1.145712
  N    -1.401616  1.986728  1.153598
  N    -4.027056 -2.170476 -0.014063
  N    -3.710620  1.613700  0.172098
  N    -4.617415 -2.041956  3.908765
  N    -4.167708  2.214940  3.951369
  S    -5.287607 -2.585980  2.454177
  S    -5.064099  2.098851  2.534238
  S    -2.539005 -1.613293 -0.407206
  S    -2.170420  1.580538 -0.304168
  S    -3.051507 -1.592916  3.793374
  S    -2.471997  2.325565  3.711650
