16  
    
  C     1.428726  0.742467  2.920566
  C     0.870595  4.129356  2.556005
  C     0.241387  0.281291  2.237764
  C    -0.212734  3.414055  1.863520
  N     2.436792  1.035742  2.111420
  N     1.949828  4.375434  1.775551
  N     0.317067  0.236072  0.928747
  N    -0.089766  3.287968  0.526404
  N    -0.183307  0.170101  4.809033
  N    -0.886447  3.733577  4.399691
  S    -1.042291  0.084370  3.385584
  S    -1.557201  3.147158  2.932445
  S     1.889494  0.673845  0.567179
  S     1.478173  3.788387  0.248095
  S     1.368542  0.772647  4.610240
  S     0.642818  4.339760  4.236173
