16  
    
  C     2.845790  1.537957  3.551219
  C     2.951524  5.195093  3.383470
  C     1.635247  0.904990  3.030678
  C     1.777042  4.650804  2.763837
  N     3.819958  1.708445  2.659703
  N     3.873992  5.617086  2.535476
  N     1.678421  0.579625  1.748808
  N     1.843940  4.623953  1.449430
  N     1.161753  1.342075  5.518173
  N     1.134871  5.007936  5.280151
  S     0.401070  0.629513  4.224529
  S     0.429114  4.316616  3.925355
  S     3.165325  1.013748  1.223930
  S     3.386038  5.164883  0.998395
  S     2.691618  1.923982  5.243266
  S     2.706190  5.395537  5.136449
