16  
    
  C     0.676988  0.347683  3.126156
  C     0.736397  3.938750  3.006603
  C    -0.615612  0.129462  2.480384
  C    -0.509329  3.465415  2.366958
  N     1.715144  0.276134  2.289695
  N     1.724163  4.014985  2.086907
  N    -0.528498  0.050788  1.159719
  N    -0.353345  3.005067  1.126463
  N    -1.108544  0.216905  4.964032
  N    -1.181632  3.873333  4.791103
  S    -1.926609  0.272637  3.543997
  S    -1.836183  3.190502  3.477707
  S     1.054481  0.120236  0.775934
  S     1.168537  3.373523  0.694588
  S     0.547455  0.493177  4.790874
  S     0.458863  4.400596  4.635403
