16  
    
  C     2.816564  1.606942  3.463475
  C     2.888078  5.238373  3.275342
  C     1.660462  0.943321  2.882683
  C     1.706179  4.638943  2.708467
  N     3.843923  1.714789  2.647570
  N     3.804833  5.528587  2.401886
  N     1.780768  0.586251  1.590440
  N     1.827502  4.288690  1.446274
  N     1.263880  1.251696  5.467780
  N     1.395660  4.643731  5.194789
  S     0.458584  0.629976  4.173772
  S     0.492998  4.189589  3.847182
  S     3.308631  1.082895  1.129999
  S     3.265777  4.976847  0.940326
  S     2.702793  2.038090  5.176347
  S     2.788960  5.521118  4.981160
