16  
    
  C     2.449905  1.045504  3.233991
  C     2.977266  5.244613  3.934919
  C     1.261617  0.500095  2.560340
  C     1.702505  4.927533  3.354475
  N     3.496674  1.283585  2.476869
  N     4.010752  5.299904  3.116403
  N     1.497732  0.251890  1.270200
  N     1.762429  4.713215  2.055051
  N     0.599014  0.975375  5.040376
  N     1.234669  5.779617  5.725511
  S    -0.141696  0.357341  3.643925
  S     0.351052  5.177915  4.443548
  S     3.068547  0.754047  0.922919
  S     3.357782  4.825462  1.627533
  S     2.223473  1.335608  4.945248
  S     2.900007  5.903920  5.499214
