16  
    
  C     2.470876  1.201359  3.345621
  C     2.864920  5.213483  3.804479
  C     1.358410  0.640458  2.650796
  C     1.673522  4.598588  3.269943
  N     3.574003  1.324713  2.610639
  N     3.857600  5.380251  2.939001
  N     1.679333  0.378540  1.379638
  N     1.856076  4.117259  2.035084
  N     0.569040  0.892475  5.087812
  N     1.232867  5.055223  5.768639
  S    -0.166274  0.452897  3.562161
  S     0.292787  4.701471  4.508098
  S     3.272573  0.787694  1.141662
  S     3.317396  4.730940  1.503753
  S     2.167891  1.384163  5.012427
  S     2.726942  5.715732  5.509620
