16  
    
  C    -5.087004 -2.373185  1.867402
  C    -5.368988  0.987955  1.608917
  C    -6.361883 -2.841404  1.293829
  C    -6.657647  0.865306  0.969524
  N    -4.058550 -2.523530  1.063518
  N    -4.344248  1.102434  0.771879
  N    -6.307240 -3.149920  0.000463
  N    -6.577052  0.665363 -0.322388
  N    -6.878868 -2.067182  3.687641
  N    -7.188103  1.074940  3.490107
  S    -7.694871 -2.759872  2.382655
  S    -8.061316  0.921701  2.051056
  S    -4.693724 -2.996413 -0.451488
  S    -5.037274  0.898603 -0.731367
  S    -5.237472 -2.157842  3.624813
  S    -5.527716  1.317743  3.267779
