16  
    
  C    -3.031418 -1.669515  2.325760
  C    -3.349649  1.982248  2.014906
  C    -4.283071 -1.803060  1.587629
  C    -4.567860  1.416027  1.472991
  N    -1.994834 -1.463528  1.494596
  N    -2.374543  2.173874  1.145865
  N    -4.203690 -2.071942  0.268343
  N    -4.613153  1.382597  0.156627
  N    -4.859910 -1.745729  4.151608
  N    -4.879653  1.388341  3.961688
  S    -5.652563 -1.772240  2.676463
  S    -5.756363  1.060142  2.641497
  S    -2.597387 -1.764977 -0.074379
  S    -3.074955  1.751840 -0.306784
  S    -3.177858 -1.562777  4.058964
  S    -3.327612  1.866156  3.700209
