16  
    
  C    -0.550112 -0.555955  2.455106
  C    -0.327142  3.426015  2.960368
  C    -1.801135 -0.923531  1.753172
  C    -1.516134  2.981660  2.323689
  N     0.454532 -0.375651  1.591892
  N     0.591914  3.773329  2.061012
  N    -1.787095 -1.131030  0.429741
  N    -1.402451  2.659854  1.031385
  N    -2.326680 -0.792610  4.285693
  N    -2.267933  3.324670  4.774556
  S    -3.097431 -1.020843  2.853911
  S    -2.970113  2.856346  3.302523
  S    -0.159032 -0.658267  0.067195
  S     0.134373  3.109575  0.614686
  S    -0.708731 -0.382606  4.182188
  S    -0.620135  3.741008  4.646532
