16  
    
  C    -2.986298 -1.375671  2.090534
  C    -3.197601  1.848347  1.959476
  C    -4.210803 -1.814291  1.455002
  C    -4.379718  1.543494  1.167568
  N    -1.995032 -1.161597  1.255184
  N    -2.110182  1.892365  1.218003
  N    -4.078566 -1.916140  0.151824
  N    -4.140057  1.332339 -0.143754
  N    -4.631753 -1.677293  3.991740
  N    -5.113664  1.704169  3.648210
  S    -5.530962 -2.005480  2.585979
  S    -5.774308  1.202379  2.231386
  S    -2.484121 -1.568396 -0.242626
  S    -2.489840  1.616787 -0.356224
  S    -3.119404 -1.077536  3.782580
  S    -3.503228  1.998901  3.676407
