16  
    
  C    -2.812723 -1.518960  2.009202
  C    -3.181044  1.979261  1.862957
  C    -4.078448 -1.829739  1.421697
  C    -4.286393  1.434411  1.124701
  N    -1.822236 -1.295078  1.133117
  N    -2.044528  2.081639  1.154667
  N    -3.959563 -2.158722  0.122100
  N    -4.084243  1.306956 -0.170227
  N    -4.553002 -1.683887  3.942576
  N    -5.133949  1.736253  3.468234
  S    -5.382849 -1.939663  2.505823
  S    -5.735282  1.138438  2.056425
  S    -2.442336 -1.661114 -0.342206
  S    -2.492955  1.598419 -0.372109
  S    -2.997212 -1.238800  3.736007
  S    -3.512461  2.067534  3.574440
