16  
    
  C     2.697880  1.331243  3.661459
  C     2.953516  5.111242  3.594218
  C     1.485574  1.027522  2.931843
  C     1.687383  4.977763  2.946378
  N     3.750517  1.509609  2.875995
  N     4.009653  5.186445  2.773210
  N     1.667213  0.965331  1.616534
  N     1.777783  4.901630  1.616415
  N     0.942453  0.733993  5.404216
  N     1.117605  5.108060  5.482412
  S     0.156228  0.586255  3.914885
  S     0.296893  5.060409  4.072082
  S     3.305737  1.283743  1.346864
  S     3.426891  4.907265  1.255548
  S     2.558653  1.239596  5.398128
  S     2.763530  5.234084  5.386441
