16  
    
  C    -4.787804 -2.570468  1.879618
  C    -5.224432  1.254604  1.767975
  C    -6.000434 -3.004250  1.230955
  C    -6.304692  0.551020  1.138456
  N    -3.816112 -2.172204  1.043019
  N    -4.127133  1.364236  0.983702
  N    -5.886352 -3.197324 -0.077074
  N    -6.147278  0.242726 -0.155922
  N    -6.588160 -2.945128  3.786169
  N    -6.958649  0.979834  3.642063
  S    -7.325356 -3.234079  2.313013
  S    -7.632483  0.367198  2.228189
  S    -4.345417 -2.618390 -0.507191
  S    -4.599134  0.676389 -0.468098
  S    -5.108610 -2.239714  3.604034
  S    -5.369092  1.368922  3.534803
