16  
    
  C    -4.185019 -2.230302  1.972809
  C    -4.243221  1.461794  1.838715
  C    -5.541035 -2.352338  1.482882
  C    -5.456357  1.201442  1.106756
  N    -3.206396 -2.035722  1.039230
  N    -3.123996  1.416680  1.115547
  N    -5.536754 -2.534190  0.166112
  N    -5.237632  1.089789 -0.220384
  N    -5.746750 -2.241109  4.065695
  N    -6.082818  1.550739  3.630397
  S    -6.781257 -2.325994  2.723990
  S    -6.849900  1.226087  2.158720
  S    -4.031286 -2.263321 -0.410503
  S    -3.631947  1.165683 -0.449165
  S    -4.113084 -1.977881  3.735736
  S    -4.382264  1.479244  3.583037
