16  
    
  C    -1.606460 -1.202883  2.098712
  C    -1.730238  2.288330  1.912736
  C    -2.918870 -1.451736  1.505391
  C    -3.020029  2.004965  1.269497
  N    -0.565188 -1.287408  1.289524
  N    -0.699671  2.488855  1.117558
  N    -2.806710 -1.506889  0.171300
  N    -2.898833  1.956201 -0.042689
  N    -3.257713 -0.978330  3.994723
  N    -3.500611  2.323815  3.765709
  S    -4.182833 -1.186402  2.638346
  S    -4.289616  1.858637  2.408622
  S    -1.191614 -1.386417 -0.236296
  S    -1.315280  2.212698 -0.438461
  S    -1.584902 -0.839881  3.807656
  S    -1.841104  2.389091  3.679437
