16  
    
  C     0.649940  0.211817  3.059476
  C     0.671652  3.838868  2.924243
  C    -0.613528  0.093026  2.461152
  C    -0.549570  3.601756  2.249484
  N     1.690850  0.211582  2.245039
  N     1.694688  3.956244  2.076070
  N    -0.574445 -0.025197  1.131720
  N    -0.412548  3.211123  0.945290
  N    -1.132692  0.212128  5.018313
  N    -1.060581  3.665249  4.793743
  S    -1.957262  0.134724  3.582646
  S    -1.762757  3.192984  3.444740
  S     1.037361  0.052381  0.701072
  S     1.158911  3.550116  0.611420
  S     0.518719  0.508395  4.831158
  S     0.537333  4.231093  4.637808
