16  
    
  C    -0.817058 -0.778549  2.367931
  C    -0.834405  3.187254  2.381513
  C    -1.998558 -1.357902  1.680007
  C    -2.021538  2.631044  1.864848
  N     0.208801 -0.472670  1.542085
  N     0.217467  3.209113  1.553664
  N    -1.740214 -1.764356  0.437265
  N    -1.927071  2.423699  0.540706
  N    -2.723528 -0.865750  4.099202
  N    -2.425011  2.784065  4.357432
  S    -3.359774 -1.555835  2.684980
  S    -3.316780  2.604917  3.007138
  S    -0.174813 -1.222854  0.090708
  S    -0.421410  2.885518  0.070333
  S    -1.136063 -0.524139  4.064457
  S    -0.843797  3.261671  4.165679
