16  
    
  C     1.802454  0.576787  3.060314
  C     1.936279  4.393783  3.377596
  C     0.554412  0.235732  2.432167
  C     0.676587  4.009925  2.740039
  N     2.818466  0.819752  2.192095
  N     2.996977  4.419154  2.559582
  N     0.575004  0.156947  1.108063
  N     0.724687  4.144420  1.418480
  N     0.019459  0.283101  4.933600
  N     0.154236  3.970325  5.275011
  S    -0.728514 -0.085106  3.579393
  S    -0.536959  3.709135  3.767893
  S     2.162010  0.517750  0.670355
  S     2.340499  4.500956  0.985333
  S     1.662596  0.446133  4.790339
  S     1.818390  4.298331  5.113390
