16  
    
  C    -3.958580 -1.868474  1.763917
  C    -3.704259  1.825027  1.848944
  C    -5.102069 -2.407466  1.103423
  C    -4.965585  1.393180  1.189595
  N    -2.920927 -1.694668  0.954033
  N    -2.695912  2.092797  1.039338
  N    -5.031422 -2.535802 -0.221226
  N    -4.895731  1.361703 -0.143860
  N    -5.816099 -1.911839  3.432146
  N    -5.387169  1.535966  3.684669
  S    -6.490750 -2.732708  2.153125
  S    -6.171071  1.130105  2.301820
  S    -3.470341 -2.091420 -0.590405
  S    -3.353126  1.813757 -0.528331
  S    -4.172658 -1.604783  3.439277
  S    -3.769068  1.857203  3.582894
