16  
    
  C    -0.100424 -0.488012  2.615115
  C     0.055957  3.527608  2.315388
  C    -1.417376 -0.602418  2.097190
  C    -1.207850  3.130730  1.709457
  N     0.877992 -0.323413  1.732270
  N     1.100078  3.649365  1.509328
  N    -1.424972 -0.656144  0.777357
  N    -1.157326  3.283055  0.368000
  N    -1.822949 -0.391446  4.518737
  N    -1.657537  3.496229  4.302586
  S    -2.738573 -0.690231  3.172820
  S    -2.472867  3.051189  2.913485
  S     0.118076 -0.363295  0.232930
  S     0.433535  3.426506 -0.015986
  S    -0.204913 -0.130538  4.263262
  S    -0.002075  3.801492  4.052338
