16  
    
  C     3.156425  1.734085  3.243809
  C     3.106112  5.079133  3.393033
  C     1.873791  1.521328  2.630479
  C     1.845419  4.920499  2.737995
  N     4.230199  1.515545  2.524025
  N     4.177317  5.098636  2.600158
  N     1.988262  1.188220  1.349754
  N     1.997723  4.591499  1.461623
  N     1.513837  1.538006  5.209961
  N     1.288438  5.016636  5.262428
  S     0.645665  1.569995  3.812989
  S     0.523099  4.538817  3.858004
  S     3.594456  1.117260  0.981689
  S     3.568060  4.756990  1.047136
  S     3.145394  1.973871  4.961791
  S     2.960223  5.221275  5.129026
