16  
    
  C    -3.441003 -2.233486  1.876713
  C    -3.784527  1.985470  1.897253
  C    -4.531753 -2.963229  1.292928
  C    -4.732995  1.026165  1.279660
  N    -2.373667 -2.000989  1.112002
  N    -2.755037  2.369780  1.169206
  N    -4.331765 -3.328810  0.017319
  N    -4.438987  0.744110  0.029615
  N    -5.361815 -2.494639  3.688023
  N    -5.417245  1.329948  3.680107
  S    -5.967425 -3.120414  2.266097
  S    -5.923507  0.523836  2.327803
  S    -2.783278 -2.807979 -0.316959
  S    -3.064437  1.597113 -0.316971
  S    -3.768015 -2.009028  3.571643
  S    -4.164073  2.419768  3.534166
