16  
    
  C     2.972123  1.535616  3.395155
  C     2.965413  5.134349  3.252851
  C     1.723529  1.319941  2.694329
  C     1.758557  4.703726  2.560692
  N     4.022981  1.570030  2.602906
  N     4.075327  5.209613  2.545341
  N     1.833311  1.256255  1.386405
  N     1.971734  4.549708  1.275936
  N     1.222297  1.136206  5.219085
  N     1.190904  4.980360  5.035434
  S     0.438109  0.931590  3.792626
  S     0.387052  4.531350  3.634363
  S     3.460954  1.396491  1.023502
  S     3.590233  4.748563  1.014641
  S     2.782987  1.584049  5.120002
  S     2.796335  5.320706  4.928931
