16  
    
  C     2.218313  0.929034  3.362453
  C     2.075002  4.706410  2.976687
  C     0.976698  0.569475  2.754149
  C     0.891855  4.184076  2.329653
  N     3.195765  1.111066  2.467761
  N     3.089254  4.586372  2.110468
  N     1.031267  0.430108  1.411189
  N     0.923397  4.104130  0.993037
  N     0.424488  1.002510  5.255582
  N     0.325139  4.427764  4.769880
  S    -0.370671  0.580056  3.863353
  S    -0.385510  3.809405  3.453086
  S     2.563249  0.767980  0.998117
  S     2.534690  4.385152  0.557804
  S     2.141228  1.096419  5.108594
  S     1.966445  4.773153  4.738090
