16  
    
  C    -1.295297 -0.766028  1.900798
  C    -1.411492  3.419000  2.025652
  C    -2.596151 -1.210629  1.489858
  C    -2.548081  2.707608  1.445563
  N    -0.466820 -0.526271  0.865831
  N    -0.425637  3.709465  1.194509
  N    -2.695905 -1.568872  0.189970
  N    -2.356406  2.520537  0.148519
  N    -2.700773 -1.059053  4.044070
  N    -3.010205  2.814110  3.976120
  S    -3.696622 -1.480508  2.808979
  S    -3.706808  2.209090  2.579097
  S    -1.219877 -1.089346 -0.525774
  S    -0.927020  3.184622 -0.296539
  S    -1.221914 -0.405470  3.597538
  S    -1.531547  3.587099  3.762697
