16  
    
  C    -4.830153 -2.323853  1.793005
  C    -5.032284  1.187259  1.744825
  C    -5.994411 -2.940685  1.224905
  C    -6.192506  0.532959  1.132815
  N    -3.813891 -2.151354  0.968088
  N    -3.945080  1.343826  1.013862
  N    -5.916327 -3.107700 -0.082766
  N    -6.007034  0.254220 -0.146018
  N    -6.386966 -3.072800  3.714388
  N    -6.874322  0.946568  3.648696
  S    -7.307038 -3.240700  2.294890
  S    -7.540683  0.160973  2.230895
  S    -4.396983 -2.570436 -0.518364
  S    -4.408410  0.716575 -0.501137
  S    -4.959850 -2.149110  3.532583
  S    -5.275664  1.474982  3.446815
