16  
    
  C     1.198365  0.161154  3.007901
  C     0.614023  3.660701  3.182267
  C    -0.037293 -0.389091  2.421656
  C    -0.515725  3.369210  2.388521
  N     2.228846  0.314005  2.180228
  N     1.622771  4.143724  2.434754
  N     0.071239 -0.634578  1.152204
  N    -0.248490  3.231808  1.086198
  N    -0.571340  0.158427  4.877975
  N    -1.198069  3.095400  4.859527
  S    -1.365908 -0.424470  3.504456
  S    -1.823936  2.827646  3.321823
  S     1.627752 -0.197643  0.747177
  S     1.260796  3.861213  0.882827
  S     1.005884  0.594071  4.618762
  S     0.333638  3.686794  4.963350
