16  
    
  C     0.689002  0.460833  3.075241
  C     0.576987  3.936552  2.956797
  C    -0.536219  0.106614  2.414281
  C    -0.522185  3.175531  2.454070
  N     1.715627  0.469408  2.248342
  N     1.588533  4.047113  2.095143
  N    -0.404775 -0.063896  1.094063
  N    -0.419291  2.861892  1.142547
  N    -1.067223  0.274405  4.947445
  N    -1.212143  4.005535  4.817823
  S    -1.884995  0.289908  3.537104
  S    -1.927934  3.301614  3.558074
  S     1.175974  0.145617  0.684778
  S     1.080406  3.317250  0.709938
  S     0.601796  0.506797  4.850038
  S     0.461387  4.327019  4.638349
