16  
    
  C    -1.560582 -1.180852  2.701717
  C    -1.686810  2.463700  2.449617
  C    -2.741272 -1.572997  1.902160
  C    -2.909161  2.133843  1.734965
  N    -0.528293 -0.848608  1.941036
  N    -0.673628  2.733358  1.612064
  N    -2.551478 -1.721235  0.597977
  N    -2.801564  1.981286  0.398410
  N    -3.507277 -1.528473  4.457626
  N    -3.553680  2.330460  4.206470
  S    -4.126439 -1.772430  2.899371
  S    -4.371145  2.188261  2.757684
  S    -0.974617 -1.177832  0.342139
  S    -1.202851  2.365936  0.086770
  S    -1.872028 -1.148699  4.446558
  S    -1.941575  2.707659  4.106657
