16  
    
  C    -3.028121 -1.540637  2.249667
  C    -3.244058  1.901720  2.012120
  C    -4.303893 -1.798026  1.576358
  C    -4.448379  1.360398  1.340640
  N    -2.011626 -1.187585  1.434575
  N    -2.204400  2.099339  1.186096
  N    -4.156760 -1.976768  0.247929
  N    -4.356800  1.319107  0.014482
  N    -4.873940 -1.544337  4.048923
  N    -5.015053  1.577896  3.890765
  S    -5.657467 -1.870189  2.632492
  S    -5.777817  1.196194  2.482193
  S    -2.585603 -1.589484 -0.071316
  S    -2.826283  1.797934 -0.389010
  S    -3.185430 -1.231303  3.983098
  S    -3.404513  1.878624  3.807410
