16  
    
  C     0.676772  0.373662  2.946145
  C     0.653517  3.688669  2.800901
  C    -0.538745 -0.196574  2.393257
  C    -0.575157  3.333679  2.180321
  N     1.668096  0.509060  2.067438
  N     1.599988  3.989762  1.935849
  N    -0.456908 -0.407523  1.084997
  N    -0.638002  3.277790  0.867895
  N    -0.976235  0.250873  4.901234
  N    -0.930420  3.490613  4.795226
  S    -1.842158 -0.128086  3.504589
  S    -1.832782  3.236754  3.362412
  S     1.063000  0.008757  0.593128
  S     0.929599  3.721940  0.391406
  S     0.661683  0.501173  4.688544
  S     0.672500  3.662836  4.521900
