16  
    
  C     1.895183  0.472659  3.062833
  C     1.864490  4.130167  3.279634
  C     0.582493  0.173133  2.536898
  C     0.583670  4.131565  2.640806
  N     2.813638  0.613360  2.107158
  N     2.896807  4.299602  2.413593
  N     0.503235  0.109780  1.242862
  N     0.644689  3.883857  1.299713
  N     0.234986  0.255714  5.153016
  N     0.188525  4.033501  5.163417
  S    -0.679333  0.165354  3.734512
  S    -0.678795  3.982410  3.768688
  S     2.069749  0.418152  0.637938
  S     2.219905  4.224321  0.919415
  S     1.828321  0.701678  4.765747
  S     1.778958  4.192984  5.051371
