16  
    
  C     0.637910  0.359746  2.969709
  C     0.687744  3.630279  2.806104
  C    -0.535179 -0.160074  2.397592
  C    -0.550278  3.368711  2.202655
  N     1.643968  0.488550  2.091952
  N     1.615534  4.040708  1.920087
  N    -0.468257 -0.384283  1.087424
  N    -0.611894  3.288567  0.877412
  N    -0.989098  0.262714  4.893475
  N    -0.925460  3.513074  4.794865
  S    -1.858971 -0.113494  3.497080
  S    -1.844905  3.237486  3.371343
  S     1.051762  0.001492  0.611272
  S     0.935766  3.708746  0.405796
  S     0.677278  0.496178  4.707312
  S     0.661061  3.701884  4.531624
