16  
    
  C    -5.704560 -3.141975  1.611212
  C    -6.043757  0.792385  1.355400
  C    -6.896600 -3.408651  0.811212
  C    -7.228938  0.129301  0.751087
  N    -4.643753 -2.921623  0.795149
  N    -5.126815  1.219484  0.492386
  N    -6.692737 -3.645205 -0.469507
  N    -7.227691  0.165702 -0.577177
  N    -7.818010 -3.075034  3.176462
  N    -7.660820  0.262813  3.327899
  S    -8.429554 -3.413134  1.684025
  S    -8.522585 -0.166862  1.951726
  S    -5.117565 -3.273123 -0.763495
  S    -5.824371  0.975539 -1.058033
  S    -6.158760 -3.054045  3.362176
  S    -6.146024  0.852896  3.123324
