16  
    
  C    -4.807167 -2.339473  1.795774
  C    -5.041649  1.194535  1.737112
  C    -6.014960 -2.888192  1.226972
  C    -6.181181  0.483829  1.134740
  N    -3.810632 -2.115538  0.956851
  N    -3.920679  1.309248  1.012852
  N    -5.928304 -3.092695 -0.087238
  N    -5.967920  0.250983 -0.169755
  N    -6.382187 -3.041923  3.723706
  N    -6.860235  0.948834  3.625996
  S    -7.299434 -3.247226  2.308044
  S    -7.512096  0.144948  2.215943
  S    -4.391542 -2.577439 -0.530275
  S    -4.408958  0.736593 -0.497678
  S    -4.946902 -2.152751  3.506804
  S    -5.259262  1.490607  3.448346
