16  
    
  C     3.235982  1.720406  3.300127
  C     3.151480  5.099048  3.436812
  C     1.968462  1.569971  2.674344
  C     1.865396  4.884245  2.795708
  N     4.219846  1.461984  2.432845
  N     4.168112  5.173981  2.583722
  N     1.974716  1.258789  1.380126
  N     1.909639  4.612157  1.504650
  N     1.576249  1.551828  5.191314
  N     1.321982  5.019202  5.241864
  S     0.669724  1.582302  3.836689
  S     0.588177  4.531812  3.855423
  S     3.601775  1.118665  1.015842
  S     3.511432  4.694284  1.090844
  S     3.149098  1.993961  4.949255
  S     2.972564  5.211598  5.129422
