16  
    
  C    -0.528905 -0.337245  2.650533
  C    -0.318126  3.255090  2.733332
  C    -1.802547 -0.709372  2.025434
  C    -1.443043  2.696943  2.041400
  N     0.513387 -0.345171  1.847218
  N     0.673151  3.503910  1.856167
  N    -1.733873 -0.848135  0.715189
  N    -1.243115  2.238043  0.796790
  N    -2.298008 -0.673193  4.507478
  N    -2.233465  3.126954  4.472981
  S    -3.130774 -1.029696  3.069951
  S    -2.754246  2.301300  3.101902
  S    -0.113268 -0.622971  0.281874
  S     0.291478  2.761974  0.406322
  S    -0.737145 -0.116235  4.367578
  S    -0.687871  3.790254  4.373030
