16  
    
  C    -2.081127 -0.920805  2.309886
  C    -2.231073  2.481584  1.950301
  C    -3.268682 -1.390587  1.672972
  C    -3.462000  2.108584  1.354993
  N    -1.050893 -0.762129  1.457207
  N    -1.280321  2.587838  1.036542
  N    -3.126845 -1.705483  0.376275
  N    -3.460989  1.727183  0.061132
  N    -3.890093 -1.136150  4.079010
  N    -3.890120  2.377483  3.941619
  S    -4.677467 -1.387548  2.626629
  S    -4.745596  1.988498  2.548713
  S    -1.575218 -1.299004  0.006650
  S    -1.899366  2.056218 -0.412447
  S    -2.280220 -0.786246  3.984534
  S    -2.267009  2.681379  3.703717
