16  
    
  C    -0.718032 -0.850800  2.477969
  C    -0.913197  3.161049  2.479961
  C    -1.916925 -1.299141  1.755716
  C    -2.108729  2.768794  1.835837
  N     0.306165 -0.675343  1.650067
  N     0.137949  3.042937  1.658391
  N    -1.778315 -1.336745  0.455542
  N    -2.109118  2.661944  0.482505
  N    -2.702610 -0.999269  4.211838
  N    -2.649942  3.059769  4.316098
  S    -3.334757 -1.628084  2.796639
  S    -3.466632  2.692954  2.951172
  S    -0.246221 -0.932259  0.117135
  S    -0.496173  2.803258  0.115348
  S    -1.092444 -0.561876  4.120033
  S    -1.060955  3.392547  4.197458
