16  
    
  C    -4.248331 -2.195333  2.046476
  C    -4.165522  1.344811  1.910326
  C    -5.525969 -2.527211  1.516689
  C    -5.458262  1.232549  1.251873
  N    -3.246704 -2.110501  1.182426
  N    -3.071849  1.470759  1.149310
  N    -5.573717 -2.433600  0.178031
  N    -5.324826  1.036698 -0.053089
  N    -5.828191 -2.066787  4.043737
  N    -6.023842  1.451816  3.657607
  S    -6.743262 -2.409458  2.700644
  S    -6.808668  1.170898  2.250245
  S    -3.986147 -2.158001 -0.314750
  S    -3.688043  1.194452 -0.412618
  S    -4.233527 -1.880777  3.747642
  S    -4.358976  1.546793  3.590492
