16  
    
  C     2.498175  1.084530  3.314100
  C     2.993511  5.426662  3.902112
  C     1.335621  0.614525  2.639976
  C     1.769447  4.866654  3.373174
  N     3.558062  1.158950  2.504877
  N     3.950229  5.563247  2.983799
  N     1.508260  0.425924  1.331031
  N     1.855934  4.454350  2.124933
  N     0.478399  1.104906  5.023088
  N     1.145707  5.534069  5.725066
  S    -0.121340  0.460829  3.549113
  S     0.418049  4.825622  4.439641
  S     3.088745  0.759510  1.001410
  S     3.386465  4.751631  1.669648
  S     2.116341  1.375727  5.056883
  S     2.768593  5.796621  5.617776
