16  
    
  C    -4.621445 -2.192348  1.503280
  C    -4.446442  1.370804  1.939040
  C    -5.734669 -2.634932  0.744189
  C    -5.602087  0.783703  1.340577
  N    -3.577955 -1.784848  0.789851
  N    -3.538414  1.805065  1.088462
  N    -5.468287 -2.802991 -0.572645
  N    -5.539808  0.747802  0.000375
  N    -6.442115 -2.913771  3.218680
  N    -5.987584  0.869021  3.834108
  S    -7.056236 -3.322918  1.735939
  S    -6.775345  0.336918  2.462654
  S    -3.980512 -2.154794 -0.831721
  S    -4.150216  1.413663 -0.381729
  S    -4.879623 -2.425243  3.191735
  S    -4.407513  1.415766  3.630481
