16  
    
  C     2.589171  0.988431  3.098524
  C     2.466395  4.891606  3.496897
  C     1.367156  0.513380  2.451515
  C     1.225959  4.542002  2.762008
  N     3.616426  1.249037  2.319528
  N     3.555967  5.159166  2.769952
  N     1.543336  0.404576  1.144991
  N     1.504610  4.260938  1.492518
  N     0.899411  0.628458  5.008135
  N     0.736095  4.479497  5.345294
  S    -0.018072  0.449518  3.575052
  S    -0.051692  4.022208  3.948574
  S     3.143374  0.937694  0.756395
  S     3.124910  4.657582  1.211354
  S     2.466291  1.169678  4.806577
  S     2.278069  5.125327  5.225232
