16  
    
  C    -1.085032 -0.679879  2.318622
  C    -0.706286  3.034145  2.710950
  C    -2.267129 -1.306948  1.717495
  C    -1.932784  2.685907  2.103939
  N    -0.046384 -0.610433  1.531609
  N     0.293556  3.325512  1.857593
  N    -2.145462 -1.598127  0.433393
  N    -1.748475  2.306440  0.819591
  N    -2.770790 -0.875649  4.233065
  N    -2.506994  3.072448  4.642016
  S    -3.614630 -1.198666  2.827779
  S    -3.325400  2.761710  3.175355
  S    -0.559803 -1.076000  0.028247
  S    -0.168075  2.625864  0.451220
  S    -1.193108 -0.377033  4.033864
  S    -0.824406  3.368051  4.392909
