16  
    
  C     1.461200  1.013549  3.315330
  C     1.436597  4.356092  3.396562
  C     0.235009  0.599672  2.762911
  C     0.116334  4.176505  2.896638
  N     2.487728  1.001562  2.467967
  N     2.375969  4.504653  2.444367
  N     0.330439  0.241371  1.486261
  N     0.056943  3.940954  1.581310
  N    -0.270819  0.803883  5.289710
  N    -0.054574  4.651455  5.424889
  S    -1.087066  0.513447  3.875368
  S    -1.041968  4.164646  4.181779
  S     1.900520  0.483304  1.042411
  S     1.585406  4.246531  1.065579
  S     1.345927  1.321142  4.977935
  S     1.535654  4.782924  5.121824
