16  
    
  C    -3.956678 -1.914183  1.772983
  C    -3.704496  1.885672  1.859003
  C    -5.160437 -2.345337  1.088232
  C    -4.848802  1.353428  1.205162
  N    -2.972835 -1.699311  0.933517
  N    -2.726599  2.113480  1.017533
  N    -5.042876 -2.552482 -0.228181
  N    -4.905760  1.373276 -0.117306
  N    -5.789977 -1.947631  3.475930
  N    -5.345597  1.463139  3.682355
  S    -6.421210 -2.777097  2.161826
  S    -6.186189  1.142579  2.291823
  S    -3.476273 -2.089711 -0.586137
  S    -3.336141  1.861978 -0.508826
  S    -4.175487 -1.660919  3.451332
  S    -3.741317  1.905620  3.557475
