16  
    
  C    -1.661896 -1.119847  2.636982
  C    -1.789870  2.571305  2.430840
  C    -2.865116 -1.576034  1.927571
  C    -3.014232  2.283735  1.747375
  N    -0.587691 -0.935955  1.890119
  N    -0.729620  2.579030  1.628542
  N    -2.662626 -1.560665  0.632860
  N    -2.907381  2.131849  0.415159
  N    -3.442097 -1.566983  4.357459
  N    -3.608013  2.365803  4.258105
  S    -4.229032 -1.782241  2.932159
  S    -4.372226  2.088816  2.808720
  S    -1.089181 -1.234911  0.361237
  S    -1.293463  2.394780  0.051045
  S    -1.883738 -1.014237  4.347595
  S    -1.947877  2.598113  4.181093
