16  
    
  C    -2.825607 -1.513251  2.016232
  C    -3.187051  1.985819  1.872125
  C    -4.088438 -1.828240  1.411915
  C    -4.276945  1.438801  1.126521
  N    -1.833961 -1.281389  1.143926
  N    -2.034697  2.075499  1.167519
  N    -3.966506 -2.152964  0.108628
  N    -4.086522  1.320868 -0.182406
  N    -4.556383 -1.682952  3.946425
  N    -5.143709  1.744213  3.488048
  S    -5.385717 -1.942525  2.508566
  S    -5.735179  1.139861  2.071867
  S    -2.451538 -1.650281 -0.328001
  S    -2.495023  1.588106 -0.368122
  S    -3.003706 -1.227142  3.736928
  S    -3.516624  2.057675  3.570308
