16  
    
  C    -4.255863 -2.471581  1.492911
  C    -4.328954  1.567084  2.056573
  C    -5.489775 -2.789894  0.883787
  C    -5.451849  0.910286  1.369851
  N    -3.205232 -2.331567  0.722044
  N    -3.320413  1.742820  1.239021
  N    -5.309039 -3.132423 -0.399047
  N    -5.318582  0.700497  0.085248
  N    -6.095624 -2.578093  3.373968
  N    -6.149457  1.396711  3.836753
  S    -6.778691 -3.173291  1.989130
  S    -6.833621  0.832152  2.364981
  S    -3.759439 -2.774780 -0.779981
  S    -3.792581  1.252603 -0.297424
  S    -4.459789 -2.233330  3.179070
  S    -4.520500  1.932822  3.694985
