16  
    
  C    -1.658005 -1.197674  2.667526
  C    -1.788761  2.593156  2.376892
  C    -2.823842 -1.540822  1.946902
  C    -2.999651  2.194323  1.745315
  N    -0.597493 -0.893204  1.889343
  N    -0.683701  2.593795  1.613625
  N    -2.638421 -1.611782  0.611399
  N    -2.849022  2.105756  0.434520
  N    -3.463102 -1.569289  4.382866
  N    -3.600407  2.354833  4.240435
  S    -4.188129 -1.773472  2.919404
  S    -4.382318  2.118968  2.792818
  S    -1.052646 -1.222422  0.365215
  S    -1.279408  2.392817  0.057803
  S    -1.876517 -1.044927  4.376082
  S    -1.934663  2.624608  4.176562
