16  
    
  C    -0.526312 -0.402186  2.410719
  C    -0.408013  3.583317  2.885470
  C    -1.712168 -0.987281  1.775171
  C    -1.529295  2.941013  2.289992
  N     0.488446 -0.274388  1.547185
  N     0.653977  3.798071  2.086697
  N    -1.551046 -1.124405  0.460972
  N    -1.382904  2.665621  0.995073
  N    -2.184645 -0.759354  4.309809
  N    -2.198368  3.253929  4.752596
  S    -3.002618 -1.038291  2.872625
  S    -2.920212  2.916316  3.289727
  S    -0.069768 -0.689916  0.053478
  S     0.133622  3.171141  0.588308
  S    -0.570586 -0.381133  4.165636
  S    -0.603992  3.729688  4.646087
