16  
    
  C     3.013439  1.432831  3.361163
  C     3.066171  5.047600  3.356480
  C     1.776895  1.156771  2.668923
  C     1.830222  4.836065  2.582284
  N     4.091333  1.608977  2.607201
  N     4.136273  5.177210  2.559889
  N     1.915906  1.133169  1.323901
  N     2.081488  4.496869  1.293032
  N     1.232951  1.511043  5.183252
  N     1.113924  5.052167  5.096749
  S     0.381537  1.121653  3.784461
  S     0.458772  4.624108  3.616853
  S     3.492161  1.426766  0.975742
  S     3.651436  4.808448  0.968438
  S     2.907634  1.621676  5.059895
  S     2.766734  5.259372  5.079553
