16  
    
  C     1.067550  0.281504  3.079731
  C     1.065708  4.099697  2.643338
  C    -0.176464  0.035726  2.363448
  C    -0.076940  3.503534  2.065679
  N     2.125131  0.286149  2.330522
  N     2.067712  4.339208  1.783999
  N    -0.028773 -0.121287  1.062398
  N     0.077123  2.961782  0.851165
  N    -0.813470 -0.043503  4.814586
  N    -0.853092  4.246703  4.384740
  S    -1.552047  0.064749  3.360922
  S    -1.420185  3.325164  3.158931
  S     1.606870  0.027903  0.760583
  S     1.634230  3.458832  0.390550
  S     0.794823  0.302781  4.756154
  S     0.773131  4.728990  4.217448
