16  
    
  C     0.895514  0.333011  2.917063
  C     0.482315  3.592037  2.935120
  C    -0.352024 -0.070798  2.326305
  C    -0.829663  3.656442  2.394758
  N     1.963510  0.384224  2.123862
  N     1.450673  3.717831  2.042859
  N    -0.259674 -0.295775  1.004497
  N    -0.889982  3.494855  1.063321
  N    -0.891849  0.235717  4.781055
  N    -1.125555  3.543679  4.959699
  S    -1.737948 -0.189208  3.386460
  S    -2.012381  3.296124  3.577984
  S     1.319729 -0.024530  0.656880
  S     0.740551  3.806329  0.541028
  S     0.736065  0.602181  4.634189
  S     0.541820  3.701469  4.683063
