16  
    
  C    -3.694578 -2.449488  1.674722
  C    -3.437685  1.827794  1.685307
  C    -4.968827 -2.684942  1.048076
  C    -4.571348  1.110905  1.084666
  N    -2.628668 -2.167150  0.921813
  N    -2.399783  1.891726  0.874383
  N    -4.816932 -2.792582 -0.261350
  N    -4.420422  0.835239 -0.215612
  N    -5.469868 -2.842427  3.617507
  N    -5.126371  1.493622  3.498969
  S    -6.329653 -2.878342  2.170190
  S    -5.819390  0.802498  2.188260
  S    -3.228247 -2.482345 -0.637057
  S    -2.877584  1.280043 -0.551591
  S    -3.839179 -2.632153  3.447620
  S    -3.617816  2.087294  3.336908
