16  
    
  C    -2.562549 -1.310994  2.249494
  C    -2.586977  2.510009  2.329881
  C    -3.746575 -1.625527  1.550802
  C    -3.665233  1.797197  1.729287
  N    -1.599858 -0.996869  1.348748
  N    -1.632912  2.900200  1.478222
  N    -3.670541 -1.866730  0.221811
  N    -3.624484  1.786594  0.380067
  N    -4.332648 -1.747012  4.027343
  N    -4.400727  2.017922  4.206270
  S    -5.081488 -2.015307  2.531921
  S    -5.072178  1.429198  2.766042
  S    -2.120876 -1.463752 -0.147095
  S    -2.221233  2.590594 -0.043847
  S    -2.789700 -1.081173  3.960664
  S    -2.808713  2.531317  4.075036
