16  
    
  C    -5.543953 -2.786480  1.586385
  C    -5.461664  0.960069  1.409304
  C    -6.747873 -3.027794  0.857142
  C    -6.659624  0.429391  0.739895
  N    -4.456286 -2.604054  0.839808
  N    -4.454092  1.217019  0.588802
  N    -6.626841 -3.220538 -0.443910
  N    -6.593322  0.219498 -0.541689
  N    -7.318217 -3.284120  3.318714
  N    -7.229547  0.510161  3.263193
  S    -8.089197 -3.275232  1.858590
  S    -8.017545  0.171281  1.819633
  S    -4.995930 -2.971176 -0.708577
  S    -5.070120  0.797926 -0.951745
  S    -5.853476 -2.545753  3.271593
  S    -5.708104  1.155351  3.057232
