16  
    
  C    -2.099759 -1.034038  2.018597
  C    -2.668829  2.562551  2.120488
  C    -3.166600 -1.860753  1.436743
  C    -3.863913  2.079527  1.530702
  N    -1.170376 -0.673518  1.148121
  N    -1.666152  2.830586  1.306122
  N    -3.094184 -1.982374  0.124319
  N    -3.709786  1.697071  0.268478
  N    -3.554664 -1.872474  3.935795
  N    -4.363000  2.447535  4.051243
  S    -4.436850 -2.255673  2.596673
  S    -5.114868  1.844445  2.722082
  S    -1.664251 -1.234781 -0.335181
  S    -2.182747  2.225547 -0.210726
  S    -2.216061 -0.917251  3.710334
  S    -2.762656  2.854276  3.849182
