16  
    
  C     2.587616  1.139761  3.339577
  C     2.653360  5.233223  3.634219
  C     1.452035  0.583276  2.628225
  C     1.464151  4.523505  3.174008
  N     3.686613  1.374683  2.623989
  N     3.709489  5.097062  2.834155
  N     1.698239  0.329109  1.371775
  N     1.511828  4.246012  1.880796
  N     0.594873  0.937242  4.970738
  N     1.048922  4.956417  5.649969
  S    -0.084860  0.520767  3.537805
  S     0.256736  4.199337  4.370261
  S     3.237315  0.844883  1.027534
  S     3.070315  4.573592  1.349326
  S     2.235223  1.391946  5.020656
  S     2.620500  5.576101  5.358611
