16  
    
  C    -5.750964 -2.994974  1.222710
  C    -5.823662  0.852241  1.574659
  C    -6.960925 -3.547980  0.662327
  C    -6.926019  0.217898  0.964948
  N    -4.916931 -2.418924  0.367192
  N    -4.882906  1.156742  0.713414
  N    -6.845148 -3.783069 -0.656218
  N    -6.837008  0.125952 -0.352554
  N    -7.402035 -3.103518  3.183989
  N    -7.613330  0.590404  3.434622
  S    -8.138481 -3.863902  1.907463
  S    -8.282232 -0.054624  2.061587
  S    -5.411338 -2.981966 -1.147231
  S    -5.394776  0.784640 -0.791395
  S    -5.816997 -2.826466  2.952146
  S    -6.063582  1.023017  3.270722
