16  
    
  C     1.020814  0.041641  2.958696
  C     0.983503  3.984759  2.786037
  C    -0.250035 -0.316492  2.459378
  C    -0.355965  3.517386  2.305549
  N     1.948367  0.120817  2.059296
  N     1.976931  3.917333  1.934351
  N    -0.335102 -0.364342  1.131422
  N    -0.309579  2.984423  1.104496
  N    -0.500778 -0.094840  4.989725
  N    -0.646588  4.151708  4.807626
  S    -1.505334 -0.501119  3.621790
  S    -1.558720  3.351450  3.579592
  S     1.192713 -0.038651  0.558901
  S     1.223497  3.281815  0.493220
  S     1.141905  0.200493  4.683845
  S     0.918062  4.432535  4.452430
