16  
    
  C     3.343209  1.596074  3.362903
  C     3.116537  5.091671  3.449520
  C     2.044446  1.472033  2.746912
  C     1.823854  4.775511  2.819237
  N     4.286739  1.407516  2.469971
  N     4.117900  5.137755  2.586466
  N     1.991858  1.288704  1.432163
  N     1.951530  4.429264  1.542706
  N     1.569046  1.662036  5.277906
  N     1.388786  5.020861  5.363546
  S     0.703380  1.620301  3.861037
  S     0.544713  4.564757  3.996765
  S     3.554485  1.205144  0.904640
  S     3.518716  4.694957  1.069015
  S     3.268822  1.955149  5.083812
  S     3.058182  5.278186  5.190959
