16  
    
  C    -4.942891 -2.558507  1.930364
  C    -5.318707  0.973377  1.748588
  C    -6.128494 -2.969740  1.264392
  C    -6.519330  0.487473  1.149941
  N    -3.881060 -2.473254  1.143118
  N    -4.234790  1.158657  0.977090
  N    -5.975074 -3.213924 -0.053189
  N    -6.458362  0.409854 -0.208459
  N    -6.798024 -2.520305  3.707781
  N    -7.174622  1.044912  3.657547
  S    -7.443213 -3.178389  2.314556
  S    -7.873004  0.590528  2.216005
  S    -4.376583 -2.887679 -0.352601
  S    -4.816579  0.833866 -0.584404
  S    -5.107594 -2.329411  3.656221
  S    -5.509881  1.336209  3.453758
