16  
    
  C     1.392032  0.654678  3.096230
  C     1.003225  4.213179  2.769730
  C     0.170633  0.254940  2.482984
  C    -0.077909  3.691362  2.024719
  N     2.371505  0.877622  2.196100
  N     2.036994  4.547607  2.051600
  N     0.160824  0.115849  1.149467
  N     0.113729  3.641635  0.720382
  N    -0.407982  0.702593  4.946440
  N    -0.897968  3.858852  4.400591
  S    -1.119558  0.145536  3.565586
  S    -1.450658  3.281239  2.987862
  S     1.708280  0.525490  0.728109
  S     1.695899  4.165479  0.472046
  S     1.271421  0.928923  4.795922
  S     0.653396  4.366706  4.465018
