16  
    
  C     2.817368  1.606629  3.462870
  C     2.886285  5.243243  3.266644
  C     1.660432  0.942836  2.879451
  C     1.715000  4.627045  2.711192
  N     3.851971  1.720078  2.646718
  N     3.806531  5.530100  2.397301
  N     1.786673  0.588191  1.591701
  N     1.827966  4.293584  1.447304
  N     1.255801  1.255728  5.464354
  N     1.393255  4.638783  5.189629
  S     0.461378  0.630324  4.168384
  S     0.493959  4.188009  3.848693
  S     3.306084  1.084467  1.124114
  S     3.262883  4.968128  0.934872
  S     2.705524  2.035961  5.179689
  S     2.789030  5.522042  4.982350
