16  
    
  C     2.952229  1.599690  3.457793
  C     2.929965  5.282569  3.212501
  C     1.783624  0.962186  2.950795
  C     1.810920  4.468460  2.718885
  N     3.866014  1.779771  2.516698
  N     3.831842  5.554443  2.270887
  N     1.808907  0.650083  1.659629
  N     1.792389  4.324362  1.399383
  N     1.150089  1.405819  5.397426
  N     1.331186  4.669300  5.255274
  S     0.488506  0.634351  4.031218
  S     0.516822  4.167326  3.874080
  S     3.285441  1.163931  1.108930
  S     3.264121  4.845904  0.841417
  S     2.722820  1.904590  5.174355
  S     2.752974  5.497533  4.962215
