16  
    
  C     2.617624  1.106127  3.429706
  C     2.954471  5.226915  3.637236
  C     1.472864  0.700920  2.682354
  C     1.623605  5.043226  3.106111
  N     3.649091  1.427775  2.636800
  N     3.909586  4.832524  2.781379
  N     1.637618  0.677628  1.368379
  N     1.574363  4.804711  1.780206
  N     0.694369  0.832116  5.108988
  N     1.300726  5.530745  5.702559
  S     0.146419  0.263134  3.680762
  S     0.403927  5.366463  4.322110
  S     3.206205  1.231650  1.127734
  S     3.178071  4.706319  1.327870
  S     2.314890  1.107879  5.155770
  S     2.940604  5.424823  5.417797
