16  
    
  C     1.448262  0.643564  2.962767
  C     0.930930  3.936108  2.576267
  C     0.252489  0.270859  2.253841
  C    -0.277134  3.584729  1.818339
  N     2.551204  0.572836  2.210216
  N     1.968243  4.203307  1.812903
  N     0.441731 -0.161281  1.041827
  N    -0.036148  3.317676  0.552750
  N    -0.376870  0.782002  4.620767
  N    -0.942185  3.667680  4.316891
  S    -1.149729  0.309103  3.278360
  S    -1.630234  3.184189  2.894120
  S     2.080202 -0.007523  0.754850
  S     1.534686  3.758449  0.240771
  S     1.231625  1.034265  4.575153
  S     0.659077  4.054676  4.284180
