16  
    
  C    -3.037251 -1.659644  2.303608
  C    -3.360268  1.945297  2.006129
  C    -4.295485 -1.850089  1.616815
  C    -4.605227  1.417245  1.497106
  N    -1.990718 -1.515443  1.475272
  N    -2.405626  2.119474  1.099769
  N    -4.211658 -2.008479  0.310729
  N    -4.621085  1.365287  0.164795
  N    -4.829768 -1.796468  4.138367
  N    -4.890271  1.358926  4.005840
  S    -5.652213 -1.791670  2.655880
  S    -5.760459  1.059238  2.651340
  S    -2.601025 -1.812064 -0.085020
  S    -3.079552  1.752538 -0.338623
  S    -3.159261 -1.591801  4.070630
  S    -3.319262  1.876262  3.737710
