16  
    
  C    -4.145018 -2.073855  1.822930
  C    -4.140076  1.326000  1.809192
  C    -5.471201 -2.177331  1.323723
  C    -5.385045  1.224834  1.050988
  N    -3.176420 -2.083768  0.896152
  N    -3.045920  1.259980  1.049475
  N    -5.554618 -2.423099  0.027961
  N    -5.250320  1.148665 -0.255369
  N    -5.672230 -2.158365  3.925568
  N    -6.046829  1.525563  3.483709
  S    -6.684713 -2.283471  2.601275
  S    -6.835052  1.273269  1.994600
  S    -3.983920 -2.457451 -0.534225
  S    -3.627595  1.155814 -0.553699
  S    -4.053014 -2.001047  3.525920
  S    -4.331216  1.602934  3.447375
