16  
    
  C    -5.340697 -2.431918  1.430136
  C    -5.367120  1.150837  1.299064
  C    -6.544287 -2.994509  0.859714
  C    -6.559822  0.645133  0.659385
  N    -4.388557 -2.197706  0.518463
  N    -4.332013  1.476911  0.501781
  N    -6.558382 -2.923334 -0.493988
  N    -6.428491  0.415581 -0.652500
  N    -7.067007 -2.705459  3.365379
  N    -7.164163  0.850207  3.190866
  S    -7.881134 -3.083501  1.942831
  S    -7.816754  0.081635  1.770914
  S    -5.080605 -2.456220 -0.948281
  S    -4.874672  0.984170 -1.030634
  S    -5.502492 -2.207451  3.141953
  S    -5.516166  1.218362  3.032782
