16  
    
  C    -5.382856 -2.126905  1.566590
  C    -5.318401  1.136920  1.397449
  C    -6.611909 -2.562416  0.964675
  C    -6.542730  0.606264  0.816722
  N    -4.386586 -1.885802  0.743886
  N    -4.307535  1.180113  0.542257
  N    -6.490772 -2.867310 -0.322679
  N    -6.384943  0.472516 -0.486776
  N    -7.083080 -2.566952  3.501431
  N    -7.091325  0.936711  3.258776
  S    -7.935320 -2.871116  2.082232
  S    -7.897163  0.540216  1.907098
  S    -4.894964 -2.526687 -0.751199
  S    -4.884303  0.874078 -0.947989
  S    -5.498193 -2.078045  3.298116
  S    -5.477159  1.379565  3.114059
