16  
    
  C    -1.795918 -1.117958  2.457809
  C    -1.916951  2.411289  2.572013
  C    -3.068957 -1.469748  1.844086
  C    -3.119220  1.917451  1.888139
  N    -0.819115 -0.885360  1.594188
  N    -0.859150  2.659107  1.799202
  N    -2.928541 -1.693118  0.537918
  N    -2.967487  1.969044  0.579944
  N    -3.595589 -1.161014  4.296005
  N    -3.702643  2.106062  4.400029
  S    -4.439191 -1.648025  2.886637
  S    -4.454908  1.976512  2.934492
  S    -1.411805 -1.237551  0.109123
  S    -1.426512  2.460736  0.231429
  S    -1.947730 -0.886945  4.122414
  S    -2.087922  2.431242  4.317710
