16  
    
  C    -2.039333 -1.070468  2.220559
  C    -1.789331  2.167795  2.069180
  C    -3.327835 -1.370498  1.616453
  C    -3.043001  2.005352  1.371494
  N    -0.985105 -1.060261  1.369111
  N    -0.765075  2.345616  1.224935
  N    -3.249063 -1.376959  0.248676
  N    -2.944405  1.869233  0.043878
  N    -3.753681 -0.905834  4.143438
  N    -3.757513  2.268216  3.785800
  S    -4.611677 -1.213043  2.777962
  S    -4.467089  1.751074  2.368196
  S    -1.644217 -1.184540 -0.163661
  S    -1.351390  2.126296 -0.290394
  S    -2.129648 -0.729258  3.944922
  S    -2.099596  2.414706  3.723183
