16  
    
  C     2.999466  1.493651  3.371790
  C     2.981392  5.178430  3.279106
  C     1.765452  1.284744  2.716380
  C     1.805702  4.652013  2.587750
  N     4.037044  1.592457  2.536024
  N     4.088015  5.209040  2.535983
  N     1.835029  1.253712  1.367790
  N     1.956246  4.603046  1.242460
  N     1.199400  1.256248  5.244577
  N     1.165227  5.002124  5.054188
  S     0.418485  0.977646  3.811353
  S     0.414057  4.571556  3.645289
  S     3.500776  1.402842  1.042636
  S     3.643974  4.747044  1.031445
  S     2.793101  1.580192  5.056848
  S     2.773541  5.286745  4.940183
