16  
    
  C    -3.884477 -2.392113  1.607157
  C    -3.434995  1.742691  1.578566
  C    -5.194193 -2.347476  0.988216
  C    -4.548803  1.089639  1.036900
  N    -2.853549 -2.217647  0.794512
  N    -2.452482  1.970858  0.683916
  N    -5.088107 -2.186158 -0.342356
  N    -4.515478  1.005928 -0.295653
  N    -5.580694 -2.433344  3.466021
  N    -5.099890  1.546930  3.453212
  S    -6.392916 -2.755381  2.076819
  S    -5.924707  0.954684  2.146582
  S    -3.498148 -2.033331 -0.669046
  S    -3.028524  1.595972 -0.763045
  S    -3.921312 -2.593312  3.337019
  S    -3.589020  2.178903  3.261302
