16  
    
  C    -4.209480 -1.972114  1.763951
  C    -4.155124  1.529395  1.940017
  C    -5.421822 -2.505186  1.194257
  C    -5.375445  0.962071  1.372179
  N    -3.178882 -2.016037  0.950670
  N    -3.220321  1.725385  1.006369
  N    -5.338832 -2.755822 -0.139894
  N    -5.242159  0.519916  0.097861
  N    -6.024387 -2.058417  3.640731
  N    -5.930340  1.737307  3.702086
  S    -6.825872 -2.402828  2.255570
  S    -6.700823  0.930106  2.470733
  S    -3.771607 -2.521895 -0.558383
  S    -3.822290  1.049216 -0.390584
  S    -4.418810 -1.470410  3.514109
  S    -4.310978  2.085096  3.515850
