16  
    
  C    -4.300263 -2.398817  1.536339
  C    -4.351180  1.594075  1.949953
  C    -5.502381 -2.823583  0.828911
  C    -5.468867  0.949013  1.400051
  N    -3.208991 -2.321096  0.741749
  N    -3.272311  1.772505  1.151295
  N    -5.367878 -3.017908 -0.467264
  N    -5.336880  0.782357  0.076969
  N    -6.124747 -2.590575  3.306739
  N    -6.137845  1.301606  3.883257
  S    -6.766758 -3.267714  1.899340
  S    -6.822768  0.787740  2.493829
  S    -3.773244 -2.729657 -0.761289
  S    -3.844824  1.240235 -0.331218
  S    -4.486683 -2.267021  3.209469
  S    -4.565063  1.867677  3.674298
