16  
    
  C     1.580927  0.716801  2.848394
  C     0.821479  4.196980  2.438940
  C     0.345890  0.326043  2.202566
  C    -0.266392  3.394932  1.894472
  N     2.571289  0.847565  1.985465
  N     1.945163  4.265626  1.675621
  N     0.364748  0.262916  0.890524
  N    -0.151440  3.107003  0.600787
  N    -0.195867  0.385094  4.836002
  N    -0.869566  3.806540  4.381635
  S    -0.899234 -0.045009  3.365330
  S    -1.616678  3.120285  3.019787
  S     1.930808  0.639489  0.420640
  S     1.353458  3.654498  0.179486
  S     1.418003  0.872938  4.585362
  S     0.710439  4.177071  4.149292
