16  
    
  C    -3.523999 -2.538896  1.893291
  C    -3.715791  1.980191  1.811174
  C    -4.729790 -2.989909  1.180442
  C    -4.631885  1.001588  1.262974
  N    -2.434770 -2.324493  1.162009
  N    -2.684860  2.320499  1.042047
  N    -4.489823 -3.245772 -0.090308
  N    -4.414908  0.703972 -0.027988
  N    -5.441320 -2.510296  3.634272
  N    -5.407133  1.439512  3.698792
  S    -5.994973 -3.346794  2.309206
  S    -5.973405  0.572577  2.406482
  S    -2.897099 -2.746859 -0.384141
  S    -2.974176  1.478320 -0.461554
  S    -3.800117 -2.156043  3.620694
  S    -3.979621  2.273385  3.572326
