16  
    
  C     2.226287  1.115392  3.479856
  C     2.003951  5.018162  3.182259
  C     0.965530  0.681359  2.935181
  C     0.901702  4.459201  2.379926
  N     3.204549  1.218800  2.578131
  N     3.114349  5.169086  2.450915
  N     0.967152  0.348662  1.636058
  N     1.031231  4.488362  1.036143
  N     0.525178  0.924495  5.511187
  N     0.227819  4.448840  4.848761
  S    -0.310909  0.649401  4.084448
  S    -0.514031  4.208735  3.402984
  S     2.590712  0.647540  1.103561
  S     2.644352  4.961811  0.850960
  S     2.224407  1.140671  5.216615
  S     1.713709  5.093039  4.945420
