16  
    
  C     3.484564  1.611323  3.576195
  C     2.983549  5.285150  3.352165
  C     2.186411  1.093079  3.112590
  C     1.862842  4.615571  2.673054
  N     4.419950  1.846223  2.650268
  N     4.030107  5.501396  2.558174
  N     2.120212  0.899625  1.811816
  N     2.113132  4.384336  1.397029
  N     1.894236  1.364842  5.617214
  N     1.324230  4.687970  5.277905
  S     0.959424  0.956403  4.330455
  S     0.514711  4.296158  3.854087
  S     3.584997  1.369052  1.179470
  S     3.678351  4.894927  1.069449
  S     3.499443  1.749844  5.353692
  S     2.743219  5.541195  5.099517
