16  
    
  C     0.689269  0.375074  2.939926
  C     0.647252  3.704715  2.798161
  C    -0.539018 -0.203078  2.391440
  C    -0.585973  3.324087  2.177461
  N     1.673868  0.514374  2.061619
  N     1.596894  3.976175  1.937445
  N    -0.455038 -0.414110  1.083716
  N    -0.641839  3.275600  0.864903
  N    -0.973005  0.247559  4.902804
  N    -0.934370  3.484306  4.793419
  S    -1.837846 -0.131941  3.507102
  S    -1.829917  3.236362  3.361139
  S     1.065972  0.010946  0.589049
  S     0.928325  3.725261  0.388525
  S     0.656958  0.502721  4.683491
  S     0.675830  3.653391  4.519635
