16  
    
  C    -1.380564 -0.606883  1.841940
  C    -1.221224  3.421125  2.141436
  C    -2.573705 -1.232950  1.493337
  C    -2.372206  2.747469  1.593081
  N    -0.525884 -0.507765  0.830533
  N    -0.319603  3.635830  1.203809
  N    -2.781768 -1.446250  0.156758
  N    -2.368690  2.552197  0.288701
  N    -2.807929 -0.550641  3.995796
  N    -2.755598  2.916944  4.112457
  S    -3.699970 -1.327843  2.827239
  S    -3.575598  2.331717  2.797802
  S    -1.308192 -1.020148 -0.535764
  S    -0.982021  3.240056 -0.255216
  S    -1.255011 -0.139829  3.562796
  S    -1.229782  3.515966  3.834557
