16  
    
  C     3.502595  1.550835  3.569579
  C     2.961360  5.357694  3.333348
  C     2.181920  1.065506  3.136174
  C     1.923025  4.582205  2.758417
  N     4.377116  1.774464  2.581782
  N     4.072297  5.455307  2.557577
  N     2.138197  0.858311  1.835065
  N     2.095562  4.337170  1.453308
  N     1.875692  1.331358  5.596218
  N     1.287001  4.701476  5.218941
  S     0.896908  0.966995  4.317358
  S     0.548553  4.283063  3.806899
  S     3.584419  1.346438  1.204053
  S     3.661780  4.915383  1.079455
  S     3.455529  1.798234  5.343764
  S     2.728710  5.513020  5.084913
