16  
    
  C    -5.352924 -2.433509  1.524895
  C    -5.359499  1.026568  1.383730
  C    -6.597532 -2.811439  0.864027
  C    -6.467460  0.464975  0.734491
  N    -4.433564 -2.023948  0.636888
  N    -4.405145  1.337305  0.497809
  N    -6.490178 -2.981447 -0.466318
  N    -6.380016  0.408229 -0.594135
  N    -7.116498 -2.542551  3.384687
  N    -7.111382  0.901013  3.141539
  S    -7.938158 -2.965275  2.001569
  S    -7.795320  0.277810  1.831235
  S    -5.007216 -2.359595 -0.904208
  S    -4.890529  0.967763 -0.994454
  S    -5.504086 -2.144178  3.220544
  S    -5.509394  1.311168  3.098146
