16  
    
  C    -2.124063 -1.204645  2.001093
  C    -2.665785  2.617042  2.160255
  C    -3.273830 -1.844190  1.415254
  C    -3.843433  1.926599  1.613622
  N    -1.267178 -0.588795  1.180365
  N    -1.650505  2.802819  1.307801
  N    -3.087524 -2.021451  0.102803
  N    -3.672910  1.674950  0.311706
  N    -3.647577 -1.825712  3.960742
  N    -4.397437  2.403258  4.123018
  S    -4.454730 -2.309446  2.595230
  S    -5.151346  1.801810  2.743877
  S    -1.690161 -1.205797 -0.312081
  S    -2.210876  2.293039 -0.170142
  S    -2.207277 -0.912937  3.720670
  S    -2.786939  2.848844  3.852651
