16  
    
  C     2.214608  0.936973  3.408669
  C     2.081214  4.597388  2.979591
  C     0.961999  0.586496  2.818346
  C     0.823790  4.316731  2.327665
  N     3.230354  1.112305  2.589084
  N     3.125965  4.906106  2.172008
  N     1.017317  0.338816  1.503933
  N     0.928312  4.068609  1.008224
  N     0.582824  0.889942  5.298319
  N     0.317469  4.394398  4.908180
  S    -0.317494  0.659813  3.951005
  S    -0.455548  3.904867  3.443603
  S     2.648392  0.730951  1.079538
  S     2.490753  4.496452  0.673029
  S     2.209487  1.014865  5.098679
  S     1.890423  4.892004  4.611806
