16  
    
  C    -0.750090 -0.879891  2.444971
  C    -0.903524  3.151411  2.473561
  C    -1.928634 -1.234931  1.768070
  C    -2.104042  2.721364  1.834260
  N     0.333265 -0.639944  1.655551
  N     0.131388  3.081107  1.636813
  N    -1.784049 -1.394057  0.454079
  N    -2.087522  2.676279  0.483027
  N    -2.685216 -0.956817  4.187801
  N    -2.634611  3.019734  4.353570
  S    -3.340656 -1.641198  2.797178
  S    -3.440919  2.681820  2.960001
  S    -0.224571 -0.965332  0.116773
  S    -0.486738  2.807968  0.110804
  S    -1.096552 -0.570978  4.110134
  S    -1.036731  3.389374  4.190142
