16  
    
  C    -0.551339 -0.669998  2.440160
  C    -0.415409  3.472233  2.934326
  C    -1.863413 -0.879360  1.794073
  C    -1.582736  2.870575  2.312672
  N     0.428678 -0.416345  1.583098
  N     0.639736  3.639757  2.109426
  N    -1.772561 -1.063164  0.486146
  N    -1.413516  2.664133  1.020802
  N    -2.415054 -0.786599  4.295986
  N    -2.247648  3.362383  4.691805
  S    -3.217077 -1.037589  2.865343
  S    -2.976978  2.827034  3.338554
  S    -0.208089 -0.665723  0.057152
  S     0.114663  3.094154  0.620709
  S    -0.785945 -0.383589  4.151677
  S    -0.644718  3.746461  4.659259
