16  
    
  C     0.122818  0.076665  2.739681
  C     0.033075  3.619929  2.670971
  C    -0.986825 -0.616611  2.135191
  C    -1.021443  2.978161  1.979260
  N     1.159171  0.216067  1.892306
  N     1.131007  3.770093  1.947476
  N    -0.898790 -0.684347  0.791024
  N    -0.807618  2.721468  0.698263
  N    -1.553158 -0.282823  4.608660
  N    -1.719075  3.195296  4.491781
  S    -2.270314 -0.918162  3.234589
  S    -2.330206  2.540460  3.118429
  S     0.631670 -0.190634  0.388029
  S     0.689736  3.368674  0.401740
  S    -0.030400  0.360394  4.418193
  S    -0.196529  3.919643  4.397618
