16  
    
  C    -0.129413 -0.398370  2.568856
  C    -0.043562  3.301848  2.577339
  C    -1.247255 -1.051675  1.922062
  C    -1.095584  2.586706  1.862553
  N     0.963355 -0.156721  1.808068
  N     0.938894  3.673839  1.751447
  N    -1.100827 -1.092198  0.593754
  N    -0.956246  2.620524  0.533536
  N    -1.910182 -0.964058  4.391755
  N    -1.842889  2.956057  4.324638
  S    -2.648680 -1.390196  2.938145
  S    -2.444910  2.295767  2.875205
  S     0.425038 -0.528709  0.306429
  S     0.572513  3.192092  0.230486
  S    -0.367366 -0.456561  4.275001
  S    -0.293457  3.526056  4.280241
