16  
    
  C    -4.275262 -1.842067  1.858905
  C    -4.160996  1.565286  1.849054
  C    -5.505507 -2.401538  1.289772
  C    -5.379749  1.074273  1.321309
  N    -3.202983 -1.726252  1.067122
  N    -3.213898  1.698082  0.940229
  N    -5.274379 -2.795574  0.056612
  N    -5.277825  0.621037  0.062906
  N    -6.004126 -2.209991  3.765926
  N    -5.883000  1.731938  3.859015
  S    -6.852640 -2.289063  2.368578
  S    -6.649794  0.952483  2.585590
  S    -3.762054 -2.355253 -0.363577
  S    -3.808382  1.045583 -0.491616
  S    -4.450213 -1.497085  3.562523
  S    -4.236633  1.902936  3.660924
