16  
    
  C    -2.854152 -1.487250  2.032619
  C    -3.186932  1.986959  1.889896
  C    -4.099999 -1.842883  1.388383
  C    -4.279571  1.455552  1.130913
  N    -1.859674 -1.258220  1.174183
  N    -2.026183  2.061813  1.190477
  N    -3.985183 -2.130147  0.084303
  N    -4.090566  1.340906 -0.200050
  N    -4.570757 -1.683520  3.947047
  N    -5.163928  1.758583  3.534941
  S    -5.394031 -1.948109  2.517575
  S    -5.731219  1.144239  2.101681
  S    -2.468165 -1.632099 -0.303365
  S    -2.492906  1.572314 -0.364447
  S    -3.010667 -1.202978  3.738801
  S    -3.526494  2.039138  3.562167
