16  
    
  C    -1.611635 -1.119397  2.351364
  C    -1.786741  2.394666  2.330068
  C    -2.883882 -1.409402  1.763395
  C    -2.946861  1.864439  1.692491
  N    -0.631158 -1.140846  1.426780
  N    -0.820271  2.661889  1.485104
  N    -2.952702 -1.546218  0.423912
  N    -2.886698  1.752965  0.375779
  N    -3.282119 -0.934871  4.276904
  N    -3.592078  2.183634  4.150546
  S    -4.148027 -1.289387  2.921734
  S    -4.408640  1.740793  2.761638
  S    -1.381483 -1.283997 -0.034934
  S    -1.325661  2.194133 -0.008500
  S    -1.639805 -0.818369  4.054309
  S    -1.992544  2.590408  4.042529
