16  
    
  C    -0.047082 -0.363390  2.434213
  C    -0.351575  3.365378  2.657292
  C    -1.265559 -0.994172  1.845464
  C    -1.616329  3.200649  2.031080
  N     0.962160 -0.289701  1.569297
  N     0.663465  3.384673  1.806518
  N    -1.141242 -0.934766  0.522953
  N    -1.624239  2.980931  0.730848
  N    -1.891254 -0.597829  4.247123
  N    -2.089480  3.231108  4.648973
  S    -2.593978 -1.313223  2.933968
  S    -2.896987  2.887689  3.195144
  S     0.346570 -0.626360  0.036436
  S    -0.045293  3.254912  0.272261
  S    -0.346130 -0.018061  4.084498
  S    -0.428351  3.681334  4.402866
