16  
    
  C    -2.917375 -1.888291  2.036493
  C    -3.413351  1.607946  2.046699
  C    -4.199492 -2.178509  1.491670
  C    -4.656692  1.230007  1.479515
  N    -1.975829 -1.721046  1.099690
  N    -2.385803  1.527197  1.198312
  N    -4.233276 -2.368298  0.189971
  N    -4.574291  1.063502  0.157739
  N    -4.613541 -2.019682  3.991464
  N    -5.135206  1.628113  3.995376
  S    -5.491155 -2.216563  2.612057
  S    -5.965127  1.170521  2.641939
  S    -2.701645 -2.031709 -0.342797
  S    -2.959163  1.256662 -0.304665
  S    -3.032429 -1.572262  3.695566
  S    -3.506377  1.738224  3.873381
