16  
    
  C    -1.946676 -1.172498  2.171082
  C    -2.420801  2.402820  1.961168
  C    -3.153204 -1.562931  1.518332
  C    -3.689927  2.020203  1.414520
  N    -0.898411 -0.932389  1.357691
  N    -1.400666  2.532532  1.102676
  N    -2.999298 -1.763307  0.211652
  N    -3.654131  1.872400  0.098881
  N    -3.797865 -1.132503  3.995904
  N    -4.053034  2.415568  3.968811
  S    -4.480437 -1.818759  2.621623
  S    -4.940169  2.017741  2.595508
  S    -1.452765 -1.222327 -0.188412
  S    -2.088287  2.172500 -0.406308
  S    -2.191790 -0.830949  3.882398
  S    -2.475835  2.928020  3.642462
