16  
    
  C     0.796346  0.353831  3.060829
  C     0.553725  3.890370  2.966222
  C    -0.454349  0.127617  2.400208
  C    -0.641332  3.373853  2.414944
  N     1.829365  0.552200  2.233581
  N     1.549639  4.005482  2.103454
  N    -0.372868 -0.186884  1.129184
  N    -0.589912  2.943778  1.191503
  N    -0.996009  0.259884  4.893369
  N    -1.129463  3.918882  4.873954
  S    -1.820680  0.198039  3.445037
  S    -1.979293  3.309724  3.563363
  S     1.185419  0.139076  0.758644
  S     0.966426  3.321871  0.658914
  S     0.647348  0.598219  4.737746
  S     0.470023  4.216010  4.653644
