16  
    
  C    -0.341180 -0.320477  2.370948
  C    -0.331394  3.477760  2.822982
  C    -1.423826 -0.942761  1.746546
  C    -1.563174  2.990047  2.164102
  N     0.697446 -0.249587  1.558002
  N     0.685909  3.634182  1.973062
  N    -1.329654 -1.125521  0.443785
  N    -1.497353  2.978018  0.812980
  N    -1.965712 -0.623835  4.295284
  N    -2.113127  3.195617  4.690780
  S    -2.679938 -1.190768  2.924783
  S    -2.938926  2.902189  3.280631
  S     0.185326 -0.684909  0.047512
  S     0.088604  3.225671  0.441943
  S    -0.355527 -0.215187  4.121497
  S    -0.526225  3.763213  4.483395
