16  
    
  C    -4.239448 -2.415263  1.511215
  C    -4.273213  1.472623  2.027320
  C    -5.435133 -3.019233  0.911433
  C    -5.463749  0.967255  1.353958
  N    -3.206918 -2.360523  0.699199
  N    -3.272915  1.757744  1.214903
  N    -5.341431 -3.215041 -0.424907
  N    -5.247017  0.618542  0.081048
  N    -5.979546 -2.572920  3.433129
  N    -6.137095  1.496754  3.708171
  S    -6.831957 -3.023117  2.058264
  S    -6.872018  0.894400  2.324704
  S    -3.731605 -2.811232 -0.817653
  S    -3.711710  1.242017 -0.260514
  S    -4.406975 -2.152950  3.259209
  S    -4.542111  1.978221  3.733944
