16  
    
  C    -0.208089 -0.360577  2.750522
  C     0.137071  3.531548  2.325386
  C    -1.318028 -0.928618  1.955226
  C    -1.019348  3.008412  1.717747
  N     0.872933 -0.119840  2.021320
  N     1.203496  3.645847  1.509586
  N    -1.070731 -0.963040  0.642451
  N    -0.955255  2.941153  0.387194
  N    -2.140812 -0.650523  4.467782
  N    -1.504742  2.834721  4.202505
  S    -2.755527 -0.986937  2.982864
  S    -2.380400  2.791364  2.809076
  S     0.508091 -0.475386  0.453579
  S     0.590930  3.492697 -0.032533
  S    -0.507524 -0.253796  4.537058
  S     0.085833  3.408472  4.036178
