16  
    
  C    -0.052832 -0.674057  2.591956
  C    -0.260028  3.116977  2.653222
  C    -1.285870 -1.151081  2.050729
  C    -1.563697  2.735796  2.081832
  N     0.900289 -0.581344  1.687085
  N     0.588869  3.508230  1.688929
  N    -1.274697 -1.552253  0.782969
  N    -1.478384  2.480990  0.788338
  N    -1.817510 -0.685335  4.543633
  N    -1.933708  2.883949  4.571625
  S    -2.647898 -1.180585  3.187785
  S    -2.809725  2.521987  3.199985
  S     0.259357 -1.149620  0.268003
  S     0.040602  2.895378  0.263276
  S    -0.149407 -0.310763  4.360816
  S    -0.378909  3.337374  4.424110
