16  
    
  C    -1.964788 -1.110992  2.189719
  C    -1.818098  2.353220  2.052397
  C    -3.228256 -1.292956  1.565720
  C    -3.031819  1.955117  1.296743
  N    -0.965916 -0.936041  1.333907
  N    -0.719175  2.320219  1.295575
  N    -3.194302 -1.434513  0.223859
  N    -2.838695  1.844353 -0.027354
  N    -3.638870 -0.935939  4.126381
  N    -3.677828  2.076712  3.777270
  S    -4.541795 -1.204974  2.754029
  S    -4.423848  1.842158  2.304287
  S    -1.571152 -1.242359 -0.157723
  S    -1.246715  2.120455 -0.304046
  S    -1.971201 -0.861676  3.841277
  S    -2.043364  2.409384  3.748554
