16  
    
  C     3.355217  1.474898  3.596415
  C     3.076874  5.170077  3.419242
  C     2.079037  0.987508  3.085107
  C     1.944043  4.630429  2.749103
  N     4.321716  1.648157  2.720277
  N     4.099129  5.540534  2.616913
  N     2.094015  0.816379  1.777239
  N     2.175975  4.263670  1.480175
  N     1.777661  1.336657  5.632731
  N     1.195237  4.878860  5.144188
  S     0.883274  0.992604  4.268204
  S     0.620517  4.205565  3.703383
  S     3.596983  1.256730  1.210123
  S     3.572872  4.930811  1.115517
  S     3.346535  1.909627  5.275336
  S     2.751445  5.459727  5.082230
