16  
    
  C    -1.752555 -1.127388  2.548435
  C    -1.828327  2.533931  2.507316
  C    -2.997424 -1.348251  1.860553
  C    -3.091004  2.225318  1.791119
  N    -0.697114 -1.014647  1.737463
  N    -0.800471  2.584752  1.670149
  N    -2.818000 -1.553157  0.547256
  N    -3.000934  2.351907  0.474785
  N    -3.556985 -1.451464  4.433217
  N    -3.647115  2.303897  4.309603
  S    -4.255185 -1.786250  2.956695
  S    -4.445681  1.985389  2.890495
  S    -1.207204 -1.264762  0.195981
  S    -1.398989  2.379551  0.134083
  S    -1.975940 -0.899585  4.303613
  S    -1.990289  2.515304  4.180547
