16  
    
  C     3.172082  1.598944  3.276966
  C     3.062142  4.988665  3.377753
  C     1.896637  1.325052  2.683976
  C     1.858295  4.676681  2.660627
  N     4.166193  1.610746  2.378353
  N     4.160240  5.064700  2.633622
  N     1.962420  1.044887  1.397521
  N     1.992431  4.616104  1.357636
  N     1.404362  1.611482  5.151107
  N     1.265790  5.000628  5.185965
  S     0.516049  1.505215  3.778744
  S     0.477921  4.638817  3.798782
  S     3.583759  1.206166  0.937650
  S     3.680334  4.870075  1.057555
  S     3.035496  1.864002  5.025555
  S     2.888732  5.262894  5.090896
