16  
    
  C    -1.280104 -0.787780  1.873777
  C    -1.491789  3.448943  2.019188
  C    -2.575177 -1.235778  1.481987
  C    -2.518279  2.636325  1.451562
  N    -0.440702 -0.518233  0.889013
  N    -0.474661  3.732202  1.181025
  N    -2.619038 -1.590789  0.238419
  N    -2.361398  2.504945  0.123349
  N    -2.698478 -1.097562  4.011385
  N    -3.047989  2.798131  3.969461
  S    -3.730932 -1.484473  2.798075
  S    -3.734522  2.211892  2.544989
  S    -1.204667 -1.072690 -0.482834
  S    -0.914418  3.147861 -0.309604
  S    -1.239449 -0.455975  3.611529
  S    -1.545925  3.563217  3.775834
