16  
    
  C     2.520571  1.083304  3.248542
  C     2.613240  4.949562  3.589101
  C     1.396930  0.621950  2.533096
  C     1.358266  4.473400  3.057172
  N     3.621505  1.227354  2.508271
  N     3.576674  5.273423  2.703361
  N     1.631788  0.430405  1.245536
  N     1.493293  4.128277  1.765668
  N     0.626161  1.097562  4.984188
  N     0.991643  4.936965  5.610751
  S     0.024451  0.458978  3.598486
  S     0.207681  4.187940  4.366123
  S     3.263745  0.852096  1.011650
  S     3.021509  4.591240  1.300874
  S     2.286749  1.353004  4.945877
  S     2.505014  5.415199  5.283601
