16  
    
  C    -0.652496 -0.430083  2.668493
  C    -0.368825  3.325165  2.696488
  C    -1.914422 -0.806562  2.043849
  C    -1.394252  2.554155  2.056163
  N     0.317272 -0.222349  1.790268
  N     0.661288  3.653964  1.948696
  N    -1.778617 -1.153176  0.766397
  N    -1.077181  2.103293  0.850635
  N    -2.211202 -0.862518  4.654436
  N    -2.199397  3.067713  4.440598
  S    -3.094186 -0.992022  3.241698
  S    -2.835461  2.299445  3.131766
  S    -0.192968 -0.808205  0.334193
  S     0.388012  2.809813  0.513015
  S    -0.674041 -0.294025  4.374172
  S    -0.729284  3.723089  4.303470
