16  
    
  C    -3.780200 -2.352513  1.748040
  C    -3.407747  1.739748  1.603124
  C    -4.987272 -2.673405  1.017648
  C    -4.608115  1.253037  1.051589
  N    -2.743911 -2.249242  0.880072
  N    -2.349236  1.898090  0.818662
  N    -4.895346 -2.648873 -0.316387
  N    -4.415048  0.881135 -0.223622
  N    -5.481562 -2.886984  3.529222
  N    -5.106517  1.462728  3.525934
  S    -6.359241 -2.769242  2.102208
  S    -5.849840  0.808037  2.166882
  S    -3.290563 -2.373484 -0.637326
  S    -2.848705  1.245247 -0.621600
  S    -3.810495 -2.647274  3.403025
  S    -3.565614  2.106586  3.290857
