16  
    
  C    -1.970054 -1.055660  2.320924
  C    -2.284178  2.554886  1.934279
  C    -3.226182 -1.402316  1.624346
  C    -3.531695  2.048139  1.391811
  N    -1.037516 -0.736536  1.457781
  N    -1.265338  2.548494  1.059284
  N    -3.107795 -1.732516  0.370478
  N    -3.498946  1.762068  0.094630
  N    -3.886832 -1.097662  4.071428
  N    -3.925946  2.385726  3.947779
  S    -4.638314 -1.467029  2.580795
  S    -4.780792  2.003594  2.551227
  S    -1.570003 -1.289010 -0.027177
  S    -1.955360  2.075564 -0.421969
  S    -2.259031 -0.792393  3.989981
  S    -2.299379  2.728967  3.672631
