16  
    
  C    -2.862580 -1.699364  2.029711
  C    -2.435692  2.254287  1.976988
  C    -4.058399 -2.166564  1.326987
  C    -3.734668  1.950462  1.461201
  N    -1.946498 -1.262818  1.158395
  N    -1.415653  2.008487  1.132090
  N    -4.014010 -2.175468 -0.028608
  N    -3.720345  1.603052  0.179020
  N    -4.651406 -2.065608  3.882575
  N    -4.184638  2.224218  3.961762
  S    -5.295330 -2.588800  2.441500
  S    -5.060643  2.093903  2.529590
  S    -2.522170 -1.611508 -0.391874
  S    -2.154122  1.595316 -0.304410
  S    -3.057181 -1.593650  3.778183
  S    -2.501049  2.318033  3.706986
