16  
    
  C    -1.345909 -0.620011  1.810194
  C    -1.177758  3.250651  2.106404
  C    -2.663520 -1.159571  1.512048
  C    -2.457794  2.735430  1.536049
  N    -0.463375 -0.577123  0.815729
  N    -0.303474  3.680492  1.208208
  N    -2.762750 -1.393287  0.203670
  N    -2.420284  2.598854  0.230338
  N    -2.775880 -0.574923  3.994967
  N    -2.804055  2.908793  4.083955
  S    -3.691229 -1.439478  2.848861
  S    -3.561197  2.263096  2.754423
  S    -1.336528 -1.058754 -0.519663
  S    -0.958985  3.269011 -0.283671
  S    -1.222164 -0.192483  3.469216
  S    -1.320451  3.620806  3.848837
