16  
    
  C    -0.963642 -0.516080  2.406751
  C    -1.123549  3.106910  2.376681
  C    -2.183148 -0.971658  1.706841
  C    -2.366297  2.811304  1.777023
  N     0.020394 -0.130439  1.628944
  N    -0.020013  3.038110  1.625064
  N    -1.921330 -1.201746  0.417917
  N    -2.211502  2.436663  0.517895
  N    -2.716349 -1.113103  4.228891
  N    -2.960009  3.172566  4.271906
  S    -3.421002 -1.488025  2.796941
  S    -3.749783  3.044994  2.771958
  S    -0.382958 -0.676023  0.120823
  S    -0.633059  2.689181  0.118661
  S    -1.153500 -0.588739  4.214297
  S    -1.266310  3.309950  4.144103
