16  
    
  C     3.154052  1.514018  3.341995
  C     3.122554  4.896134  3.412291
  C     1.906184  1.167614  2.682763
  C     1.934450  4.681556  2.690478
  N     4.180665  1.646636  2.515463
  N     4.165217  5.146800  2.629324
  N     1.942845  0.996145  1.366021
  N     2.054629  4.602903  1.388766
  N     1.289389  1.660530  5.199377
  N     1.199623  5.018297  5.126758
  S     0.531060  1.410320  3.726818
  S     0.486932  4.674316  3.649364
  S     3.471261  1.300992  0.929447
  S     3.616748  4.871916  1.086816
  S     2.955322  1.757124  5.011911
  S     2.846957  5.271458  5.051508
