16  
    
  C    -4.079509 -2.272369  1.765592
  C    -4.106011  1.420470  1.676027
  C    -5.440643 -2.280610  1.203072
  C    -5.311541  1.185470  0.991842
  N    -3.116293 -2.256220  0.860026
  N    -3.014186  1.239841  0.958727
  N    -5.455751 -2.419690 -0.135008
  N    -5.198975  1.150884 -0.354533
  N    -5.683336 -1.889653  3.767361
  N    -5.957199  1.555482  3.537097
  S    -6.623575 -2.291802  2.443628
  S    -6.722681  1.324609  2.114793
  S    -3.890125 -2.305063 -0.620068
  S    -3.573614  1.130490 -0.668378
  S    -4.048929 -1.858776  3.497090
  S    -4.299264  1.674731  3.395134
