16  
    
  C    -3.635919 -2.477288  1.783654
  C    -3.456447  1.754278  1.718336
  C    -4.878300 -2.765810  1.091489
  C    -4.558665  1.056287  1.084717
  N    -2.649459 -2.251540  0.949009
  N    -2.415571  1.974990  0.928581
  N    -4.784392 -2.900618 -0.246475
  N    -4.396376  0.732033 -0.181625
  N    -5.473317 -2.794692  3.626498
  N    -5.245609  1.517406  3.625936
  S    -6.234232 -3.001635  2.198004
  S    -5.863355  0.780859  2.232680
  S    -3.179556 -2.552420 -0.590042
  S    -2.874091  1.327693 -0.605818
  S    -3.838360 -2.567129  3.490960
  S    -3.664426  2.116736  3.459567
