16  
    
  C     1.396387  0.869202  3.351640
  C     1.221559  4.355147  3.128671
  C     0.166441  0.332407  2.865849
  C    -0.031049  4.011369  2.506301
  N     2.352881  0.895817  2.407750
  N     2.140226  4.601329  2.224911
  N     0.204425 -0.078609  1.605442
  N    -0.016502  4.082976  1.174082
  N    -0.268116  0.969545  5.277762
  N    -0.516982  4.187778  5.092782
  S    -1.126962  0.483226  4.031839
  S    -1.253474  3.745677  3.644134
  S     1.734023  0.277556  1.046069
  S     1.537242  4.419795  0.740778
  S     1.347293  1.172943  5.029759
  S     1.108646  4.564583  4.891456
