16  
    
  C     0.848792  0.374704  2.991217
  C     0.569494  3.719631  2.965048
  C    -0.404046  0.064481  2.312861
  C    -0.791822  3.574596  2.431637
  N     1.897066  0.413843  2.175756
  N     1.529677  3.861634  2.039153
  N    -0.294437 -0.199352  0.980225
  N    -0.780789  3.309205  1.105533
  N    -0.966327  0.272148  4.918080
  N    -1.104432  3.678155  4.954319
  S    -1.748211 -0.009253  3.468879
  S    -2.004832  3.289361  3.590800
  S     1.330506  0.060018  0.637393
  S     0.835020  3.440298  0.557227
  S     0.641832  0.726906  4.756551
  S     0.490751  4.037511  4.670594
