16  
    
  C    -0.192316 -0.229845  2.566596
  C     0.016229  3.710677  2.330889
  C    -1.461102 -0.699935  2.014999
  C    -1.212982  3.223011  1.781578
  N     0.772447 -0.135667  1.654205
  N     1.083921  3.701350  1.536583
  N    -1.495932 -0.703379  0.674940
  N    -1.152806  2.916135  0.521470
  N    -1.730618 -0.328690  4.595391
  N    -1.671784  3.511076  4.293268
  S    -2.638194 -0.677696  3.235735
  S    -2.533847  3.034189  2.927151
  S     0.087925 -0.364289  0.122776
  S     0.381829  3.317691  0.029209
  S    -0.109333 -0.102262  4.322399
  S    -0.106670  3.944667  4.113082
