16  
    
  C     1.386681  0.789576  3.364555
  C     1.189482  4.468923  3.166196
  C     0.141841  0.284002  2.857216
  C     0.001034  3.960406  2.571392
  N     2.371520  0.913911  2.509045
  N     2.176576  4.608608  2.281309
  N     0.187922 -0.092724  1.568140
  N    -0.093637  4.120450  1.247616
  N    -0.224082  0.990011  5.376141
  N    -0.399635  4.187250  5.191248
  S    -1.110922  0.502519  3.997735
  S    -1.243536  3.800032  3.744483
  S     1.748537  0.315328  1.092874
  S     1.524481  4.413336  0.739764
  S     1.386466  1.197320  5.048841
  S     1.160197  4.594629  4.867827
