16  
    
  C    -2.861012 -1.577280  2.045514
  C    -2.331287  1.933353  2.107385
  C    -4.070139 -2.059176  1.453300
  C    -3.672433  1.898591  1.485534
  N    -1.891940 -1.390109  1.146851
  N    -1.344096  1.936568  1.179822
  N    -4.086150 -2.069942  0.086036
  N    -3.651954  1.690587  0.159148
  N    -4.379340 -2.022290  4.050212
  N    -4.058239  2.274683  3.957717
  S    -5.274184 -2.304284  2.721428
  S    -5.010400  2.059786  2.633490
  S    -2.484215 -1.743700 -0.342064
  S    -2.026928  1.841503 -0.289403
  S    -2.813785 -1.525022  3.775369
  S    -2.449131  2.350683  3.739632
