16  
    
  C    -5.686216 -2.802102  1.511110
  C    -5.529706  0.903139  1.433906
  C    -6.884880 -3.117286  0.799835
  C    -6.778518  0.407906  0.778250
  N    -4.720296 -2.388013  0.698526
  N    -4.474273  1.058012  0.656455
  N    -6.689299 -3.302981 -0.519768
  N    -6.674538  0.252980 -0.525868
  N    -7.616532 -2.782750  3.204319
  N    -7.364146  0.879578  3.237625
  S    -8.270127 -3.243069  1.799337
  S    -8.089197  0.187620  1.936508
  S    -5.156582 -2.789744 -0.816205
  S    -5.044577  0.606933 -0.872668
  S    -6.013668 -2.650093  3.216951
  S    -5.681260  1.012530  3.217599
