16  
    
  C    -0.894596 -0.655718  2.468098
  C    -0.491975  3.252987  2.931871
  C    -2.166256 -0.804676  1.712332
  C    -1.679388  2.750338  2.274649
  N     0.115063 -0.625312  1.660085
  N     0.580354  3.280109  2.131006
  N    -1.966834 -1.014734  0.415242
  N    -1.619903  2.720474  0.936450
  N    -2.658960 -0.628025  4.280090
  N    -2.319926  3.354072  4.662294
  S    -3.386828 -1.150854  2.850799
  S    -3.105426  2.719797  3.367611
  S    -0.394713 -0.816737  0.118556
  S    -0.007449  2.873769  0.586691
  S    -1.026316 -0.447838  4.164762
  S    -0.756095  3.743375  4.561270
