16  
    
  C     2.003023  0.882411  3.022812
  C     2.199315  4.443661  3.036299
  C     0.766092  0.457469  2.427822
  C     1.029598  3.922465  2.271907
  N     3.061101  0.993801  2.198391
  N     3.367920  4.352278  2.406337
  N     0.882662  0.145243  1.139970
  N     1.299469  3.872970  0.964905
  N     0.221740  1.006894  4.896043
  N     0.240207  4.422487  4.676779
  S    -0.614436  0.721436  3.435101
  S    -0.384798  3.873681  3.263311
  S     2.500645  0.531882  0.694923
  S     2.984053  4.020627  0.831083
  S     1.845876  1.326961  4.646305
  S     1.865621  4.778058  4.747835
