16  
    
  C    -1.626644 -1.209868  2.359296
  C    -1.816954  2.378313  2.393877
  C    -2.978738 -1.309805  1.828662
  C    -3.018629  1.852844  1.768127
  N    -0.636052 -1.119640  1.450356
  N    -0.750210  2.595152  1.616324
  N    -2.982009 -1.483815  0.500498
  N    -2.856511  1.742927  0.467019
  N    -3.324684 -1.024821  4.328555
  N    -3.661815  2.151368  4.217347
  S    -4.227325 -1.335756  2.975132
  S    -4.368377  1.692040  2.809561
  S    -1.435700 -1.288202 -0.019821
  S    -1.315640  2.231566  0.057344
  S    -1.673256 -0.745872  4.008346
  S    -2.064288  2.594979  4.128508
