16  
    
  C     2.992470  1.554188  3.448559
  C     2.923290  5.112533  3.197987
  C     1.792623  0.899035  2.938387
  C     1.700024  4.555974  2.666958
  N     3.924860  1.861355  2.544293
  N     3.816956  5.490768  2.250636
  N     1.830907  0.704686  1.626045
  N     1.817286  4.203877  1.375958
  N     1.133081  1.474317  5.256692
  N     1.284869  4.803722  5.243760
  S     0.473907  0.674725  3.966499
  S     0.554437  4.163565  3.882637
  S     3.265229  1.254917  1.106530
  S     3.292003  4.844521  0.825348
  S     2.758891  1.782655  5.173409
  S     2.755327  5.476122  4.911678
