16  
    
  C     3.126077  1.583150  3.724740
  C     3.143630  5.061010  3.398476
  C     1.928254  1.110793  3.032327
  C     1.932499  4.735828  2.711136
  N     4.219164  1.836512  2.988675
  N     4.261392  5.183670  2.668680
  N     2.138303  0.864328  1.736313
  N     2.171092  4.470368  1.445295
  N     1.303257  1.666263  5.494223
  N     1.362319  5.005546  5.200921
  S     0.614620  1.149174  4.071316
  S     0.597574  4.503010  3.813784
  S     3.716503  1.311131  1.431559
  S     3.742074  4.820945  1.164363
  S     2.960882  1.782292  5.452215
  S     3.046394  5.259975  5.114989
