16  
    
  C    -5.264390 -2.817550  1.387981
  C    -5.475170  0.990768  1.316468
  C    -6.443511 -3.432412  0.834562
  C    -6.601629  0.534224  0.596512
  N    -4.354786 -2.482666  0.477770
  N    -4.544489  1.434872  0.493582
  N    -6.449537 -3.525970 -0.488688
  N    -6.410267  0.467632 -0.730185
  N    -7.003142 -2.951740  3.325567
  N    -7.298946  0.577420  3.118882
  S    -7.780588 -3.585370  1.990204
  S    -7.919037  0.093409  1.627344
  S    -5.048146 -2.808331 -1.043725
  S    -4.930653  1.107681 -1.044555
  S    -5.316990 -2.638349  3.173306
  S    -5.702901  1.135430  3.037420
