16  
    
  C     2.434519  0.981295  3.304423
  C     2.389860  4.663823  3.426985
  C     1.235868  0.721527  2.552107
  C     1.217176  4.291242  2.667479
  N     3.522077  1.328432  2.638441
  N     3.418623  5.111798  2.705997
  N     1.364936  0.931844  1.255369
  N     1.478613  4.062690  1.382319
  N     0.656519  0.586881  5.067267
  N     0.557662  4.271074  5.190682
  S    -0.095309  0.364829  3.613268
  S    -0.115105  3.950252  3.714473
  S     2.979175  1.356897  1.030299
  S     2.978483  4.781807  1.135690
  S     2.214702  1.037627  5.002213
  S     2.212296  4.823911  5.086762
