16  
    
  C    -0.295242 -0.739224  2.664951
  C    -0.371515  3.148563  2.726058
  C    -1.612604 -1.000858  2.133236
  C    -1.566537  2.688809  2.022314
  N     0.740886 -0.762241  1.827123
  N     0.601300  3.409697  1.904537
  N    -1.575920 -1.372548  0.843824
  N    -1.378146  2.475137  0.712286
  N    -1.973108 -0.604238  4.657387
  N    -2.102981  2.939600  4.523140
  S    -2.863422 -1.281942  3.382445
  S    -2.863598  2.399868  3.185555
  S     0.066649 -1.218055  0.342814
  S     0.210504  2.935298  0.395104
  S    -0.346564 -0.300806  4.335047
  S    -0.597367  3.622528  4.386179
