16  
    
  C     0.865746  0.220071  2.886468
  C     0.510889  3.733965  2.918793
  C    -0.347365 -0.221153  2.281305
  C    -0.797930  3.442838  2.400352
  N     1.868501  0.371417  2.045142
  N     1.503420  3.855940  2.012132
  N    -0.254673 -0.455880  0.960061
  N    -0.854729  3.725129  1.081974
  N    -0.874738  0.102680  4.833198
  N    -1.068355  3.416199  4.944378
  S    -1.667890 -0.175813  3.404425
  S    -2.086162  3.336613  3.573028
  S     1.326721 -0.049284  0.491865
  S     0.691654  3.865981  0.551304
  S     0.720682  0.437741  4.671223
  S     0.507873  3.482273  4.703036
