16  
    
  C     0.846319  0.094195  2.832505
  C     0.427217  3.758109  2.994482
  C    -0.406798 -0.330251  2.213145
  C    -0.841507  3.574454  2.374971
  N     1.861914  0.168282  1.947443
  N     1.435158  3.809553  2.115454
  N    -0.427624 -0.424369  0.871606
  N    -0.885412  3.684148  1.048153
  N    -0.781742 -0.166709  4.780273
  N    -1.169481  3.078572  4.878262
  S    -1.725900 -0.331908  3.396493
  S    -2.102903  3.238255  3.553740
  S     1.169736 -0.090025  0.473129
  S     0.781910  3.953642  0.611082
  S     0.856901  0.083990  4.589742
  S     0.493432  3.321229  4.655476
