16  
    
  C    -1.275442 -0.819618  2.117852
  C    -1.518600  3.077729  2.005570
  C    -2.506464 -1.418295  1.529764
  C    -2.606579  2.368084  1.340132
  N    -0.242034 -0.647731  1.246901
  N    -0.566448  3.510335  1.176158
  N    -2.431605 -1.460689  0.204013
  N    -2.394419  2.102070  0.034678
  N    -3.104563 -1.021758  4.004748
  N    -3.246902  2.644098  3.812628
  S    -3.827727 -1.626645  2.639626
  S    -3.887731  1.950263  2.433784
  S    -0.888245 -0.991085 -0.276549
  S    -0.944996  2.919058 -0.324022
  S    -1.441838 -0.776014  3.841798
  S    -1.784705  3.428098  3.714296
