16  
    
  C    -0.156743 -0.174278  2.539678
  C    -0.021836  3.801972  2.403385
  C    -1.431551 -0.534033  2.022497
  C    -1.208671  3.120645  1.832212
  N     0.742997  0.011662  1.602972
  N     1.001297  3.741975  1.537476
  N    -1.451336 -0.763619  0.707388
  N    -1.133028  2.842133  0.493919
  N    -1.725776 -0.318393  4.603501
  N    -1.749685  3.490263  4.316722
  S    -2.627148 -0.700475  3.285423
  S    -2.513179  3.025449  2.929430
  S     0.094708 -0.382023  0.109757
  S     0.378102  3.254635  0.058757
  S    -0.107836 -0.103017  4.294394
  S    -0.107672  3.992754  4.151477
