16  
    
  C     3.116620  1.580924  3.720113
  C     3.139214  5.100863  3.396119
  C     1.922056  1.107426  3.032538
  C     1.930830  4.720343  2.713272
  N     4.218565  1.841529  2.994771
  N     4.270165  5.181077  2.677608
  N     2.149891  0.851968  1.743491
  N     2.174930  4.471018  1.442581
  N     1.304437  1.667194  5.488050
  N     1.357338  4.984238  5.205692
  S     0.611880  1.147807  4.077476
  S     0.606978  4.496131  3.817847
  S     3.723574  1.308438  1.427287
  S     3.742721  4.821759  1.154248
  S     2.954872  1.790171  5.442854
  S     3.034781  5.260804  5.107934
