16  
    
  C    -2.548595 -1.118414  2.174262
  C    -2.669920  2.510279  2.340552
  C    -3.684274 -1.772330  1.518486
  C    -3.805637  1.935303  1.743838
  N    -1.451522 -0.958564  1.389601
  N    -1.736425  3.027395  1.541099
  N    -3.561020 -1.800782  0.179421
  N    -3.649499  1.776919  0.426188
  N    -4.240930 -1.818279  4.013048
  N    -4.363941  2.024129  4.167363
  S    -5.049111 -2.039091  2.613651
  S    -4.998266  1.384126  2.809769
  S    -1.973757 -1.364588 -0.164528
  S    -2.265425  2.548111 -0.007570
  S    -2.790621 -0.996187  3.914945
  S    -2.845830  2.648346  4.101496
