16  
    
  C    -0.154297 -0.171078  2.536752
  C    -0.020473  3.797029  2.410326
  C    -1.429158 -0.517650  2.025708
  C    -1.209076  3.117313  1.832386
  N     0.748160  0.027064  1.594062
  N     0.988298  3.750647  1.536319
  N    -1.445975 -0.769211  0.707822
  N    -1.132678  2.836583  0.498766
  N    -1.723205 -0.317789  4.603999
  N    -1.754293  3.489537  4.320485
  S    -2.628642 -0.703301  3.288808
  S    -2.511362  3.023497  2.930107
  S     0.094070 -0.383471  0.113335
  S     0.381115  3.249007  0.062073
  S    -0.107929 -0.102246  4.291244
  S    -0.109206  3.996432  4.152763
