16  
    
  C    -0.156589 -0.507814  2.671752
  C     0.040443  3.312367  2.487442
  C    -1.349641 -0.875886  1.886898
  C    -1.126635  2.876341  1.786407
  N     0.878804 -0.163748  1.923593
  N     1.128395  3.584247  1.767409
  N    -1.078974 -1.020357  0.584797
  N    -0.956579  2.735911  0.470527
  N    -2.073400 -0.861956  4.405385
  N    -1.795252  2.970208  4.272952
  S    -2.608173 -1.410209  2.974368
  S    -2.402411  2.300455  2.881003
  S     0.496931 -0.530873  0.317975
  S     0.593209  3.280078  0.187781
  S    -0.461639 -0.373801  4.372231
  S    -0.200506  3.507863  4.159193
