16  
    
  C    -2.552578 -1.117244  2.177494
  C    -2.698566  2.549596  2.352123
  C    -3.648277 -1.747811  1.520126
  C    -3.810142  1.924166  1.723658
  N    -1.452383 -0.958361  1.393316
  N    -1.759592  3.034544  1.555457
  N    -3.540423 -1.816413  0.171835
  N    -3.675193  1.788213  0.417804
  N    -4.225975 -1.817886  4.029274
  N    -4.366738  2.029045  4.183615
  S    -5.035730 -2.051187  2.629751
  S    -4.985945  1.381207  2.815820
  S    -1.941161 -1.335718 -0.165101
  S    -2.266007  2.532012  0.001570
  S    -2.782645 -0.984168  3.886084
  S    -2.843956  2.670121  4.100483
