16  
    
  C    -1.379831 -0.491220  1.912768
  C    -1.162974  3.314114  2.167878
  C    -2.546835 -1.172594  1.530264
  C    -2.458974  2.814039  1.594887
  N    -0.491990 -0.310609  0.921623
  N    -0.374650  3.756382  1.210870
  N    -2.574238 -1.516825  0.235607
  N    -2.438841  2.531806  0.297918
  N    -2.818798 -0.647297  4.048470
  N    -2.693471  2.922268  4.189926
  S    -3.826509 -1.199294  2.777598
  S    -3.628935  2.486956  2.878748
  S    -1.211034 -0.947403 -0.411380
  S    -0.935137  3.098461 -0.239492
  S    -1.292586 -0.140819  3.576430
  S    -1.113533  3.371995  3.888693
