16  
    
  C    -0.202607 -0.363433  2.646121
  C     0.196410  3.485560  2.331306
  C    -1.448447 -0.473551  1.945232
  C    -1.154501  3.363548  1.728085
  N     0.836052 -0.246258  1.840548
  N     1.179385  3.581321  1.412883
  N    -1.325699 -0.646052  0.628978
  N    -1.080567  3.185789  0.418710
  N    -1.973626 -0.428081  4.543680
  N    -1.601211  3.342988  4.234847
  S    -2.729141 -0.767133  3.119653
  S    -2.407094  3.005872  2.825889
  S     0.310058 -0.506836  0.296662
  S     0.438322  3.542467 -0.070188
  S    -0.309088 -0.245231  4.473489
  S     0.080747  3.574751  4.061795
