16  
    
  C     2.598627  1.111188  3.361148
  C     2.927014  5.221630  3.679392
  C     1.433425  0.680201  2.656707
  C     1.591545  5.208884  3.094025
  N     3.667285  1.423385  2.621021
  N     3.920121  4.918235  2.848732
  N     1.648675  0.681643  1.334128
  N     1.592979  4.742142  1.824766
  N     0.676479  0.821519  5.144360
  N     1.355383  5.492331  5.671075
  S     0.092891  0.209244  3.711805
  S     0.382082  5.387037  4.360159
  S     3.214300  1.162892  1.090195
  S     3.176017  4.671835  1.363431
  S     2.287614  1.144226  5.079791
  S     2.973776  5.462055  5.411789
