16  
    
  C    -1.588463 -1.164264  2.113329
  C    -1.754187  2.349939  1.947188
  C    -2.902298 -1.359187  1.473210
  C    -2.949426  2.073298  1.264954
  N    -0.626871 -1.088891  1.241552
  N    -0.719108  2.474986  1.129680
  N    -2.903334 -1.525534  0.174216
  N    -2.861169  1.809896 -0.047036
  N    -3.327821 -1.001581  4.034990
  N    -3.552318  2.186437  3.798324
  S    -4.236083 -1.179739  2.663073
  S    -4.327457  1.909449  2.311290
  S    -1.314821 -1.403612 -0.266493
  S    -1.263383  2.196491 -0.395632
  S    -1.695058 -0.913216  3.813376
  S    -1.877183  2.366475  3.691822
