16  
    
  C    -0.742642 -0.615678  2.422951
  C    -0.473277  3.252897  2.946202
  C    -2.014053 -0.949688  1.765121
  C    -1.711898  2.930895  2.244113
  N     0.312989 -0.587624  1.653066
  N     0.584550  3.356486  2.138621
  N    -1.977765 -0.931000  0.439601
  N    -1.515201  2.605551  0.967849
  N    -2.578813 -0.693625  4.267320
  N    -2.359727  3.420511  4.771320
  S    -3.379274 -1.093851  2.877786
  S    -3.013016  2.732023  3.358025
  S    -0.285931 -0.727596  0.094065
  S     0.077259  3.030457  0.630450
  S    -0.926145 -0.414172  4.149001
  S    -0.685321  3.771185  4.572875
