16  
    
  C     3.328464  1.518197  3.479800
  C     3.194606  5.195900  3.479672
  C     1.996414  1.422184  2.942830
  C     1.904735  4.761715  2.900726
  N     4.356511  1.495734  2.613924
  N     4.243937  4.966803  2.658580
  N     1.957962  1.275026  1.627934
  N     2.011683  4.537378  1.585514
  N     1.651850  1.643851  5.470816
  N     1.378682  5.100632  5.387793
  S     0.804599  1.462036  4.117512
  S     0.576476  4.715690  4.005773
  S     3.508421  1.323848  1.073079
  S     3.579734  4.658312  1.145827
  S     3.289697  1.553944  5.269755
  S     3.014232  5.324528  5.258056
