16  
    
  C     3.650241  1.919856  3.578078
  C     3.218247  5.318865  3.455840
  C     2.401419  1.489158  2.985922
  C     2.003817  4.817238  2.865856
  N     4.665536  2.105003  2.755553
  N     4.247671  5.515616  2.665025
  N     2.509850  1.321058  1.680363
  N     2.163562  4.616105  1.565820
  N     1.970869  1.375448  5.536163
  N     1.587912  5.037462  5.363915
  S     1.046481  1.235148  4.124383
  S     0.752118  4.460436  3.985303
  S     4.110383  1.722958  1.269355
  S     3.712471  5.181197  1.190050
  S     3.461734  2.163071  5.297217
  S     3.193191  5.362153  5.188696
