16  
    
  C    -4.603761 -2.416726  1.487073
  C    -4.449070  1.289721  1.884964
  C    -5.825144 -2.713833  0.826009
  C    -5.612230  0.750319  1.175282
  N    -3.588497 -1.979965  0.715476
  N    -3.490244  1.606592  1.037691
  N    -5.732347 -2.738060 -0.516093
  N    -5.569423  0.758555 -0.175176
  N    -6.449171 -2.951877  3.320785
  N    -6.121918  0.701648  3.811018
  S    -7.177168 -3.156691  1.855664
  S    -6.867750  0.338467  2.309244
  S    -4.203082 -2.121756 -0.851555
  S    -4.059659  1.336015 -0.495498
  S    -4.937673 -2.300257  3.197128
  S    -4.512409  1.130252  3.684883
