16  
    
  C    -5.834701 -3.031321  1.579276
  C    -6.048217  0.801222  1.397565
  C    -6.958602 -3.507105  0.801089
  C    -7.236616  0.176833  0.821000
  N    -4.691112 -3.001684  0.905478
  N    -5.250323  1.305739  0.474740
  N    -6.690978 -3.555292 -0.507652
  N    -7.267842  0.137867 -0.518053
  N    -7.700142 -3.169793  3.273845
  N    -7.624140  0.278446  3.383215
  S    -8.382383 -3.536152  1.764228
  S    -8.384059 -0.336475  2.024792
  S    -5.077044 -3.306975 -0.642851
  S    -5.913711  0.908367 -0.963340
  S    -6.068235 -2.967510  3.236053
  S    -6.121806  0.909606  3.115018
