16  
    
  C     2.046354  0.641273  3.229536
  C     1.987948  4.191595  3.092771
  C     0.724841  0.341392  2.679318
  C     0.620774  4.133393  2.526013
  N     2.980100  0.667249  2.288416
  N     2.993606  4.257410  2.213032
  N     0.680912  0.100776  1.402783
  N     0.687221  3.849802  1.236557
  N     0.355797  0.690221  5.214765
  N     0.222183  4.234300  4.996479
  S    -0.549243  0.427198  3.835557
  S    -0.649776  3.972209  3.638771
  S     2.290265  0.323693  0.800561
  S     2.324526  3.933859  0.697235
  S     2.067063  0.810849  4.966538
  S     1.854490  4.653766  4.780648
