16  
    
  C     2.079699  0.638076  3.161522
  C     2.039486  4.408905  3.051465
  C     0.766930  0.360838  2.580460
  C     0.777401  4.051368  2.378380
  N     3.069208  0.664772  2.294824
  N     3.076925  4.462627  2.215481
  N     0.839859  0.086527  1.274021
  N     0.972029  3.603052  1.120267
  N     0.382109  0.938115  5.171346
  N     0.338932  4.404133  4.868082
  S    -0.551472  0.659377  3.715464
  S    -0.529715  3.927860  3.530501
  S     2.395789  0.319103  0.796129
  S     2.577321  3.999984  0.677241
  S     2.050379  0.945868  4.903501
  S     1.910023  4.800148  4.709458
