16  
    
  C    -1.504443 -1.048846  2.231617
  C    -1.829036  2.573530  2.071629
  C    -2.800773 -1.302236  1.645184
  C    -3.084366  2.031561  1.511278
  N    -0.504276 -0.989633  1.373626
  N    -0.794089  2.595280  1.218618
  N    -2.760907 -1.599618  0.376628
  N    -2.946926  1.790665  0.201883
  N    -3.210708 -0.948659  4.229102
  N    -3.456844  2.128004  4.034934
  S    -4.127735 -1.220086  2.853787
  S    -4.335163  1.863980  2.662496
  S    -1.167424 -1.434816 -0.075317
  S    -1.377489  2.152663 -0.231885
  S    -1.559938 -0.951297  3.946162
  S    -1.888361  2.575651  3.824281
