16  
    
  C    -0.950082 -0.692518  2.410725
  C    -0.603838  3.243740  2.840894
  C    -2.169222 -0.961282  1.793857
  C    -1.850742  2.835834  2.159430
  N     0.085489 -0.494449  1.552021
  N     0.425146  3.198009  2.017538
  N    -2.072203 -1.233848  0.485339
  N    -1.704670  2.387361  0.919742
  N    -2.751714 -0.744934  4.242497
  N    -2.411114  3.139189  4.703647
  S    -3.599382 -1.192159  2.853528
  S    -3.179853  2.772296  3.244809
  S    -0.502808 -1.014332  0.066487
  S    -0.142687  2.727178  0.523359
  S    -1.152021 -0.450540  4.121645
  S    -0.788819  3.581650  4.527951
