16  
    
  C    -5.333533 -2.450155  1.519063
  C    -5.368718  1.049832  1.384135
  C    -6.593265 -2.828120  0.872724
  C    -6.469659  0.458093  0.725629
  N    -4.425604 -2.028793  0.633418
  N    -4.414390  1.340981  0.496082
  N    -6.502291 -2.980266 -0.467695
  N    -6.377419  0.416993 -0.604539
  N    -7.124832 -2.551622  3.378510
  N    -7.113812  0.901446  3.134740
  S    -7.944840 -2.975806  1.995917
  S    -7.796002  0.259539  1.827232
  S    -5.011803 -2.360772 -0.917872
  S    -4.888502  0.968049 -0.999270
  S    -5.497641 -2.145271  3.215900
  S    -5.504936  1.303746  3.100813
