16  
    
  C    -4.718306 -2.425935  1.546491
  C    -4.714343  1.015350  1.432640
  C    -5.973917 -2.942759  1.063278
  C    -5.956107  0.767323  0.737890
  N    -3.703768 -2.475882  0.660860
  N    -3.609066  1.176496  0.631084
  N    -6.001247 -3.201784 -0.240238
  N    -5.788089  0.644646 -0.578744
  N    -6.341474 -2.645627  3.580336
  N    -6.613200  0.877201  3.252582
  S    -7.272385 -3.019867  2.224449
  S    -7.330386  0.391391  1.858844
  S    -4.419851 -2.925152 -0.779522
  S    -4.202805  0.906028 -0.920919
  S    -4.698799 -2.380535  3.297840
  S    -4.922690  1.170777  3.186166
