16  
    
  C     1.048589  0.199887  3.041754
  C     0.990031  4.193891  2.559275
  C    -0.257602  0.041496  2.351741
  C    -0.106137  3.379536  2.200289
  N     2.058051  0.268067  2.214390
  N     2.072644  4.143999  1.760304
  N    -0.147165 -0.139210  1.034959
  N     0.084814  2.883859  0.979375
  N    -0.758567 -0.151962  4.832651
  N    -0.746716  4.334620  4.489111
  S    -1.597392 -0.100293  3.410909
  S    -1.492029  3.392723  3.314957
  S     1.440904  0.045602  0.709722
  S     1.522814  3.406472  0.399356
  S     0.902180  0.244158  4.798042
  S     0.815258  4.757114  4.193743
