16  
    
  C    -1.097584 -0.700513  2.224048
  C    -0.704343  2.955338  2.636062
  C    -2.235876 -1.376602  1.713471
  C    -1.982666  2.623772  1.991379
  N    -0.019531 -0.686547  1.436117
  N     0.325911  3.082933  1.759080
  N    -2.152600 -1.644820  0.393752
  N    -1.804829  2.319279  0.712065
  N    -2.855896 -0.671363  4.125789
  N    -2.576796  2.964905  4.460638
  S    -3.540844 -1.453734  2.784893
  S    -3.336679  2.530829  3.010901
  S    -0.565548 -1.267995 -0.018295
  S    -0.268255  2.682753  0.279805
  S    -1.254268 -0.285089  3.968926
  S    -0.919167  3.285994  4.336712
