16  
    
  C     0.291853  0.134667  2.752221
  C     0.274404  3.535988  2.821417
  C    -0.840542 -0.513114  2.153594
  C    -0.948708  3.062392  2.090079
  N     1.280617  0.355761  1.925853
  N     1.199561  4.047679  1.989249
  N    -0.696510 -0.750360  0.879333
  N    -0.709533  2.885234  0.764428
  N    -1.366004 -0.410562  4.653608
  N    -1.634084  2.990237  4.569148
  S    -2.151115 -0.789758  3.242164
  S    -2.336677  2.680926  3.113027
  S     0.837753 -0.270724  0.411229
  S     0.774674  3.484162  0.485868
  S     0.186939  0.132354  4.498555
  S    -0.070254  3.693139  4.485045
