16  
    
  C    -1.965838 -1.085724  2.304432
  C    -2.283978  2.565446  1.921077
  C    -3.214289 -1.424421  1.629132
  C    -3.562784  2.030438  1.408340
  N    -1.017431 -0.738122  1.455490
  N    -1.265325  2.537473  1.061749
  N    -3.098420 -1.735062  0.355193
  N    -3.508507  1.775981  0.108004
  N    -3.888736 -1.088289  4.060789
  N    -3.936579  2.386668  3.939779
  S    -4.623247 -1.493810  2.573192
  S    -4.794498  2.008023  2.555684
  S    -1.564473 -1.284514 -0.045367
  S    -1.971366  2.084529 -0.418278
  S    -2.250490 -0.793600  3.998793
  S    -2.314393  2.745125  3.660973
