16  
    
  C    -4.717467 -2.807229  1.497910
  C    -4.669512  0.888470  1.408546
  C    -6.029703 -3.031747  0.940357
  C    -5.936046  0.632591  0.754320
  N    -3.717872 -2.755157  0.638143
  N    -3.611556  1.020379  0.642875
  N    -5.958259 -3.139454 -0.375383
  N    -5.770107  0.753048 -0.559299
  N    -6.394402 -2.607976  3.516192
  N    -6.505230  0.803837  3.298319
  S    -7.307013 -2.978788  2.122889
  S    -7.351405  0.696420  1.779432
  S    -4.408829 -2.876859 -0.878757
  S    -4.158312  0.973058 -0.915603
  S    -4.732795 -2.469754  3.238622
  S    -4.837575  1.040045  3.102187
