16  
    
  C    -3.889573 -2.315598  1.618487
  C    -3.419772  1.761890  1.616541
  C    -5.173934 -2.410391  0.980938
  C    -4.571424  1.163464  0.992245
  N    -2.880758 -2.193545  0.807806
  N    -2.490277  2.009195  0.717714
  N    -5.113142 -2.215749 -0.319826
  N    -4.549962  1.014197 -0.333296
  N    -5.589042 -2.389930  3.469290
  N    -5.118901  1.572767  3.477933
  S    -6.395902 -2.751986  2.090745
  S    -5.917999  0.956607  2.171644
  S    -3.499265 -2.026715 -0.664936
  S    -3.037710  1.627169 -0.789999
  S    -3.926105 -2.587816  3.329100
  S    -3.612777  2.169337  3.281740
