16  
    
  C     1.057103  0.231511  3.009743
  C     0.558048  3.725774  2.931864
  C    -0.169118 -0.080194  2.233316
  C    -0.539029  3.098919  2.167492
  N     2.090227  0.537716  2.246587
  N     1.592523  4.203870  2.220407
  N     0.097132 -0.127546  0.910694
  N    -0.225634  2.889127  0.892656
  N    -0.809897 -0.218543  4.740578
  N    -1.498246  3.151547  4.476734
  S    -1.551543 -0.350954  3.299657
  S    -1.972289  2.586339  3.054218
  S     1.661792  0.344602  0.593158
  S     1.257674  3.659794  0.605936
  S     0.822301  0.221245  4.782158
  S     0.085880  3.745385  4.586313
