16  
    
  C    -3.850131 -2.251899  1.685411
  C    -3.555866  2.082271  1.667411
  C    -5.110474 -2.479284  1.056032
  C    -4.716077  1.425286  1.062994
  N    -2.925532 -1.866300  0.789867
  N    -2.577091  2.206110  0.744354
  N    -5.066370 -2.508488 -0.308088
  N    -4.667306  1.303136 -0.267391
  N    -5.644120 -2.494350  3.579906
  N    -5.158174  1.494605  3.562165
  S    -6.468420 -2.710125  2.184618
  S    -5.955757  0.973921  2.205988
  S    -3.531521 -2.034692 -0.725459
  S    -3.136061  1.758461 -0.699747
  S    -3.963795 -2.377278  3.428399
  S    -3.666296  2.133834  3.355069
