16  
    
  C    -5.015162 -2.524927  1.899789
  C    -5.429182  1.204835  1.629968
  C    -6.319240 -2.826194  1.311087
  C    -6.716652  0.892135  0.959127
  N    -4.019387 -2.488387  1.027921
  N    -4.400229  1.064447  0.812431
  N    -6.182166 -3.205976  0.036949
  N    -6.663337  0.731342 -0.350163
  N    -6.878603 -2.263153  3.798664
  N    -7.185019  1.087063  3.481660
  S    -7.706131 -2.743053  2.419350
  S    -8.036082  0.835947  2.062564
  S    -4.601867 -3.096516 -0.388484
  S    -4.993413  0.822150 -0.727057
  S    -5.210505 -2.186532  3.610396
  S    -5.526624  1.265626  3.378622
