16  
    
  C    -0.115565 -0.481431  2.592976
  C     0.006598  3.221444  2.595005
  C    -1.251418 -1.091796  1.898716
  C    -1.124372  2.665884  1.888257
  N     0.885198 -0.146631  1.797517
  N     0.912778  3.752068  1.779295
  N    -1.120404 -1.146374  0.594835
  N    -0.921430  2.395512  0.599187
  N    -1.883205 -0.992655  4.350072
  N    -1.867078  2.905036  4.316058
  S    -2.618300 -1.360278  2.893735
  S    -2.502559  2.297064  2.898074
  S     0.398131 -0.534815  0.231862
  S     0.510879  3.164594  0.238228
  S    -0.253157 -0.478414  4.288441
  S    -0.346321  3.526724  4.335363
