16  
    
  C    -2.953760 -1.389650  2.052690
  C    -3.175250  1.914703  1.890153
  C    -4.130283 -1.927080  1.399161
  C    -4.368327  1.534109  1.127364
  N    -1.923174 -1.219024  1.254435
  N    -2.051190  2.014951  1.209481
  N    -4.043410 -2.028291  0.062682
  N    -4.106585  1.353654 -0.159241
  N    -4.618223 -1.691382  3.925732
  N    -5.192733  1.771903  3.639450
  S    -5.428207 -1.963677  2.544388
  S    -5.713540  1.162841  2.164245
  S    -2.481748 -1.600934 -0.271790
  S    -2.459044  1.563544 -0.368187
  S    -3.017299 -1.142448  3.749876
  S    -3.547910  2.007615  3.571311
