16  
    
  C    -0.105455 -0.429056  2.560197
  C     0.091140  3.515908  2.405749
  C    -1.425598 -0.663246  1.997270
  C    -1.226667  3.309884  1.795940
  N     0.835630 -0.239776  1.660224
  N     1.053271  3.707555  1.474960
  N    -1.469132 -0.683550  0.675029
  N    -1.155063  3.073202  0.469434
  N    -1.766640 -0.362577  4.549174
  N    -1.678606  3.508959  4.286895
  S    -2.707864 -0.675824  3.203044
  S    -2.518848  3.042584  2.935526
  S     0.065060 -0.352708  0.228324
  S     0.431043  3.374154  0.002999
  S    -0.137898 -0.097594  4.301197
  S    -0.068059  3.879603  4.028233
