16  
    
  C    -1.292551 -0.911237  2.051229
  C    -1.581240  3.281170  1.960597
  C    -2.485867 -1.373152  1.456240
  C    -2.564218  2.379188  1.382074
  N    -0.380559 -0.570276  1.185041
  N    -0.534916  3.576042  1.189221
  N    -2.439548 -1.529629  0.137533
  N    -2.345632  2.150168  0.097946
  N    -2.970784 -1.025493  4.008471
  N    -3.226860  2.687520  3.865070
  S    -3.792743 -1.580550  2.685874
  S    -3.884006  2.045708  2.438727
  S    -0.952354 -1.009092 -0.315591
  S    -0.955799  2.998199 -0.322386
  S    -1.390802 -0.733480  3.838783
  S    -1.727175  3.422458  3.689169
