16  
    
  C     0.736286 -0.253133  2.824448
  C     0.424835  3.446671  2.945544
  C    -0.550332 -0.314147  2.224769
  C    -0.893550  3.485662  2.274044
  N     1.696542 -0.144367  1.930562
  N     1.447793  3.710355  2.130785
  N    -0.581377 -0.274203  0.908382
  N    -0.771538  3.513899  0.928659
  N    -0.865203 -0.328579  4.732842
  N    -1.324212  3.099051  4.825259
  S    -1.784156 -0.644782  3.353270
  S    -2.170538  2.929251  3.349635
  S     1.004149 -0.112756  0.424863
  S     0.770372  3.903555  0.627689
  S     0.754540 -0.055670  4.514699
  S     0.300721  3.398792  4.685347
