16  
    
  C    -4.235155 -1.945003  1.875542
  C    -4.132819  1.648256  1.879402
  C    -5.425960 -2.370564  1.244446
  C    -5.341078  0.957083  1.377238
  N    -3.229945 -1.763096  1.019621
  N    -3.204023  1.696544  0.905485
  N    -5.311580 -2.851540 -0.012449
  N    -5.325836  0.566543  0.102268
  N    -6.003219 -2.180013  3.795595
  N    -5.929428  1.783615  3.827033
  S    -6.809883 -2.283280  2.339964
  S    -6.652192  0.955103  2.568792
  S    -3.746187 -2.384459 -0.421309
  S    -3.801293  1.064837 -0.465267
  S    -4.503321 -1.484175  3.504712
  S    -4.255863  1.925071  3.608077
