16  
    
  C    -1.270958 -0.884639  2.148923
  C    -1.489382  2.983329  2.036510
  C    -2.464664 -1.303530  1.529485
  C    -2.582298  2.324666  1.333354
  N    -0.262325 -0.703530  1.339847
  N    -0.592536  3.416334  1.179519
  N    -2.410214 -1.447774  0.218902
  N    -2.394668  2.140683  0.033083
  N    -3.141971 -1.056341  4.010503
  N    -3.276770  2.598162  3.800296
  S    -3.850558 -1.663024  2.579104
  S    -3.876449  1.874090  2.440349
  S    -0.858689 -0.986613 -0.203028
  S    -0.942237  2.831654 -0.330804
  S    -1.477659 -0.779220  3.858532
  S    -1.844038  3.409941  3.691996
