16  
    
  C    -0.205383 -0.295581  2.451504
  C    -0.360775  3.275233  2.519819
  C    -1.253888 -0.919378  1.780859
  C    -1.718106  3.085953  1.959273
  N     0.889781 -0.165115  1.733708
  N     0.612846  3.559474  1.644290
  N    -1.005160 -1.073260  0.460640
  N    -1.647719  2.889134  0.645763
  N    -1.903730 -0.625802  4.252352
  N    -2.011872  3.164216  4.588961
  S    -2.576310 -1.206169  2.864334
  S    -2.916812  2.984116  3.195191
  S     0.508373 -0.557755  0.177833
  S    -0.067630  3.155641  0.165857
  S    -0.368774  0.032056  4.169965
  S    -0.368254  3.448054  4.241520
