16  
    
  C     2.697881  1.360905  3.684383
  C     2.894554  5.300555  3.590090
  C     1.483619  0.911516  2.991252
  C     1.731139  4.827773  2.854665
  N     3.762868  1.570584  2.919568
  N     4.002098  5.442460  2.859263
  N     1.639991  0.745090  1.669709
  N     1.930875  4.916663  1.532454
  N     1.027181  1.118248  5.562485
  N     1.118868  4.696514  5.401138
  S     0.190205  0.748718  4.166436
  S     0.297689  4.774578  3.965213
  S     3.177919  1.204904  1.302911
  S     3.541857  5.196819  1.246360
  S     2.668221  1.534067  5.424597
  S     2.675505  5.337684  5.337937
