16  
    
  C    -4.745080 -2.445803  1.547978
  C    -4.709999  1.038493  1.433627
  C    -5.991517 -2.960371  1.053698
  C    -5.966983  0.798354  0.756994
  N    -3.713931 -2.456335  0.662333
  N    -3.606189  1.253257  0.650345
  N    -5.993230 -3.218746 -0.245930
  N    -5.823152  0.627646 -0.543630
  N    -6.313385 -2.672464  3.591332
  N    -6.573599  0.858403  3.239667
  S    -7.260678 -3.010765  2.242661
  S    -7.341249  0.363912  1.880920
  S    -4.413419 -2.892839 -0.778750
  S    -4.186972  0.883833 -0.912184
  S    -4.710806 -2.347363  3.327638
  S    -4.941679  1.177852  3.180418
