16  
    
  C    -1.000119 -0.612458  2.362827
  C    -1.184432  3.056323  2.375638
  C    -2.199415 -0.993198  1.704069
  C    -2.436179  2.809566  1.696238
  N    -0.047417 -0.217121  1.553053
  N    -0.167274  3.041184  1.522227
  N    -2.071126 -1.117688  0.385660
  N    -2.405069  2.634204  0.359859
  N    -2.872787 -0.919590  4.145534
  N    -2.948482  3.201433  4.277025
  S    -3.595407 -1.438936  2.782822
  S    -3.793266  2.930715  2.828612
  S    -0.611483 -0.504406  0.037884
  S    -0.767199  2.694846  0.008414
  S    -1.328713 -0.335501  4.055997
  S    -1.265746  3.248786  4.076057
