16  
    
  C    -0.440377 -0.441792  2.617171
  C    -0.352703  3.356318  2.637926
  C    -1.652947 -0.805017  1.903009
  C    -1.457439  2.648365  2.080023
  N     0.616755 -0.339854  1.853916
  N     0.718087  3.357186  1.817518
  N    -1.595061 -0.834282  0.575316
  N    -1.403303  2.505345  0.743478
  N    -2.340580 -0.549774  4.435818
  N    -2.187908  3.178089  4.468618
  S    -2.986040 -0.985902  2.972474
  S    -2.810938  2.415106  3.142674
  S     0.039676 -0.508505  0.297852
  S     0.188171  2.811670  0.345394
  S    -0.768393 -0.052378  4.341753
  S    -0.608233  3.730707  4.270897
