16  
    
  C    -3.775188 -2.411346  1.609434
  C    -3.352726  1.682938  1.566405
  C    -5.064594 -2.498859  0.996942
  C    -4.594011  1.132738  0.988520
  N    -2.742162 -2.309223  0.738988
  N    -2.366215  1.856294  0.701837
  N    -5.000965 -2.200908 -0.294359
  N    -4.448922  0.870400 -0.292558
  N    -5.589711 -2.793465  3.521479
  N    -5.061290  1.455048  3.507249
  S    -6.417445 -2.713453  2.094635
  S    -5.811384  0.941462  2.140205
  S    -3.405490 -2.124470 -0.751946
  S    -2.919848  1.373978 -0.760546
  S    -3.932052 -2.603900  3.348987
  S    -3.610855  2.154817  3.272054
