16  
    
  C    -5.198161 -2.464270  1.774967
  C    -5.310926  1.186160  1.471865
  C    -6.488404 -2.782104  1.156607
  C    -6.650097  0.969330  0.880757
  N    -4.193461 -2.347672  0.885315
  N    -4.244364  1.184492  0.671780
  N    -6.386979 -2.950166 -0.157692
  N    -6.603043  0.639904 -0.415247
  N    -6.994053 -2.348228  3.637513
  N    -7.087084  1.109475  3.354719
  S    -7.857020 -2.737378  2.295891
  S    -7.989824  0.863311  1.984702
  S    -4.813548 -2.649219 -0.599465
  S    -4.962279  0.794762 -0.848777
  S    -5.390012 -1.923181  3.425265
  S    -5.471935  1.337352  3.211731
