16  
    
  C     0.643245  0.224750  3.140497
  C     0.690471  3.999986  2.946826
  C    -0.641337  0.139018  2.441070
  C    -0.489909  3.363141  2.374690
  N     1.663952  0.209810  2.286991
  N     1.777046  4.039643  2.142474
  N    -0.596696  0.024114  1.099472
  N    -0.418078  3.316110  1.044677
  N    -1.088757  0.197112  4.950028
  N    -1.040638  3.788550  4.823339
  S    -1.955262  0.211712  3.532003
  S    -1.822346  3.165940  3.434207
  S     1.028217  0.088354  0.764165
  S     1.205932  3.402450  0.643877
  S     0.562411  0.522140  4.868114
  S     0.473282  4.332069  4.616112
