16  
    
  C     1.818394  0.560714  3.072592
  C     1.964685  4.393994  3.402220
  C     0.538758  0.215556  2.434017
  C     0.746311  3.977332  2.745742
  N     2.792837  0.786807  2.224887
  N     2.997037  4.503903  2.554325
  N     0.571246  0.183193  1.127864
  N     0.741335  4.152191  1.425749
  N     0.009909  0.240421  4.916074
  N     0.204765  3.986707  5.268531
  S    -0.713642 -0.109018  3.548352
  S    -0.560053  3.698430  3.771502
  S     2.189342  0.543891  0.681287
  S     2.347121  4.517228  0.986223
  S     1.640292  0.466978  4.813775
  S     1.817914  4.309955  5.100931
