16  
    
  C     2.125941  1.266624  3.437402
  C     2.271617  4.549493  3.235553
  C     0.949281  0.814041  2.709717
  C     1.013441  4.314454  2.566650
  N     3.190804  1.546121  2.675917
  N     3.232726  4.963005  2.423035
  N     1.130883  0.640884  1.400686
  N     1.024736  4.460490  1.244734
  N     0.530423  0.769060  5.230021
  N     0.604141  4.246977  5.185892
  S    -0.338388  0.482206  3.892111
  S    -0.225271  3.863516  3.696148
  S     2.732916  1.100135  1.121214
  S     2.597157  4.889172  0.895751
  S     2.137721  1.144262  5.135744
  S     2.241190  4.767459  4.932195
