16  
    
  C    -1.337146 -0.674830  1.865628
  C    -1.321092  3.360913  2.074066
  C    -2.620895 -1.271654  1.451651
  C    -2.493178  2.817312  1.438059
  N    -0.505629 -0.572300  0.865522
  N    -0.371301  3.694278  1.217031
  N    -2.749210 -1.487478  0.140433
  N    -2.395891  2.519117  0.153721
  N    -2.691794 -0.976705  4.092194
  N    -2.949096  2.839449  3.974026
  S    -3.661697 -1.478269  2.813109
  S    -3.689695  2.195817  2.633634
  S    -1.251412 -1.107515 -0.544762
  S    -0.936468  3.225056 -0.286349
  S    -1.198190 -0.347957  3.584800
  S    -1.515132  3.613891  3.743131
