16  
    
  C     1.098781  0.255050  3.031901
  C     0.401104  3.823162  3.005001
  C    -0.070340 -0.069841  2.310162
  C    -0.475670  2.961074  2.142921
  N     2.188567  0.448760  2.301281
  N     1.524405  4.169459  2.379658
  N     0.099116 -0.163827  1.032147
  N    -0.171647  3.036607  0.848198
  N    -0.753214 -0.081233  4.751159
  N    -1.476310  3.113864  4.535304
  S    -1.456322 -0.290458  3.295667
  S    -1.841076  2.531580  3.073099
  S     1.662460  0.116975  0.765098
  S     1.307854  3.767863  0.797096
  S     0.835520  0.315339  4.707205
  S     0.087991  3.811469  4.729100
