16  
    
  C     1.591788  0.811809  3.276112
  C     2.029698  4.619509  3.281034
  C     0.557218  0.169763  2.510982
  C     0.834008  4.010388  2.689506
  N     2.653112  1.218931  2.533643
  N     3.046229  4.609723  2.423494
  N     0.866838  0.026834  1.224468
  N     0.892617  3.951850  1.342024
  N    -0.254192  0.390121  4.998437
  N     0.282952  4.266128  5.217920
  S    -0.834089 -0.125455  3.483560
  S    -0.475545  3.716893  3.847559
  S     2.396274  0.710569  0.976249
  S     2.474409  4.344677  0.905181
  S     1.281721  0.955431  4.952273
  S     1.847505  4.932020  4.933451
