16  
    
  C     2.464758  1.194008  3.342315
  C     2.863975  5.208554  3.821072
  C     1.346046  0.637235  2.642209
  C     1.661644  4.630277  3.265929
  N     3.577411  1.315000  2.614225
  N     3.850364  5.390106  2.937587
  N     1.675569  0.380749  1.374792
  N     1.871207  4.108318  2.044301
  N     0.568626  0.899705  5.094787
  N     1.233283  5.073519  5.760532
  S    -0.166020  0.454601  3.561291
  S     0.297271  4.711816  4.508771
  S     3.264977  0.788817  1.145159
  S     3.327932  4.740111  1.515515
  S     2.167463  1.384907  5.007029
  S     2.739157  5.719237  5.514938
