16  
    
  C     1.382103  0.811954  3.369506
  C     1.192486  4.449816  3.171958
  C     0.151965  0.296595  2.865242
  C    -0.001202  3.952469  2.547949
  N     2.365319  0.908015  2.475988
  N     2.150545  4.597998  2.262491
  N     0.188960 -0.093509  1.574910
  N    -0.078022  4.123210  1.235438
  N    -0.233658  0.986785  5.351055
  N    -0.428050  4.190976  5.180750
  S    -1.110679  0.499724  4.007481
  S    -1.239846  3.786472  3.711823
  S     1.746092  0.306156  1.083947
  S     1.532080  4.414843  0.735035
  S     1.372629  1.188076  5.039358
  S     1.141687  4.585019  4.870746
