16  
    
  C     2.393745  1.143274  3.416977
  C     2.387006  4.846275  3.311604
  C     1.175397  0.751491  2.716070
  C     1.179147  4.335940  2.665429
  N     3.391874  1.546100  2.615625
  N     3.398914  5.170269  2.500393
  N     1.299579  0.738516  1.402336
  N     1.266204  4.256275  1.343228
  N     0.585212  0.577351  5.119816
  N     0.507425  4.210104  5.233078
  S    -0.226550  0.457583  3.661049
  S    -0.162317  3.870595  3.725778
  S     2.833792  1.329171  1.007678
  S     2.846769  4.700794  0.943610
  S     2.144298  1.006399  5.180528
  S     2.216287  4.718163  5.119931
