16  
    
  C     1.587727  0.931913  3.248424
  C     1.933806  4.566034  3.308034
  C     0.451580  0.425332  2.553213
  C     0.790221  4.047285  2.698249
  N     2.642596  1.140891  2.490951
  N     2.912660  4.679115  2.442370
  N     0.609342  0.283022  1.271340
  N     0.822262  3.739506  1.439046
  N    -0.245930  0.487591  5.063785
  N     0.144529  4.493950  5.177754
  S    -0.919595  0.062410  3.512348
  S    -0.537507  3.999621  3.786818
  S     2.168007  0.762707  0.940720
  S     2.394121  4.178259  0.954387
  S     1.246813  1.208209  4.894331
  S     1.790894  4.893832  5.012823
