16  
    
  C    -0.195139 -0.274224  2.722114
  C     0.200032  3.582795  2.294136
  C    -1.453109 -0.463946  2.001523
  C    -1.036045  3.207006  1.714499
  N     0.860935 -0.187617  1.911625
  N     1.222610  3.640374  1.457809
  N    -1.281249 -0.694978  0.690725
  N    -1.090743  3.246721  0.379990
  N    -1.975078 -0.463980  4.514740
  N    -1.548470  3.266020  4.271296
  S    -2.753938 -0.800526  3.065048
  S    -2.404486  2.989088  2.807892
  S     0.361823 -0.545646  0.331395
  S     0.440189  3.512312 -0.077528
  S    -0.352652 -0.281724  4.443633
  S     0.091785  3.495644  4.046566
