16  
    
  C    -2.529191 -1.164551  2.168893
  C    -2.609954  2.499164  2.361487
  C    -3.730102 -1.758699  1.504856
  C    -3.775825  1.920233  1.735475
  N    -1.484887 -0.956258  1.385641
  N    -1.709158  2.994248  1.503056
  N    -3.582817 -1.796066  0.202052
  N    -3.625762  1.767649  0.429470
  N    -4.260377 -1.806540  4.006065
  N    -4.367609  2.021340  4.168937
  S    -5.062386 -2.026730  2.582080
  S    -5.027354  1.388602  2.800906
  S    -2.026857 -1.404684 -0.158134
  S    -2.258152  2.570892 -0.017878
  S    -2.797111 -1.016494  3.950928
  S    -2.843885  2.612033  4.094391
