16  
    
  C     0.040336 -0.768823  2.577874
  C    -0.317374  3.172894  2.573569
  C    -1.257599 -1.174041  1.961594
  C    -1.502065  2.652733  2.081949
  N     0.975050 -0.485541  1.664210
  N     0.693836  3.296260  1.732257
  N    -1.180865 -1.513904  0.666394
  N    -1.445536  2.436175  0.769356
  N    -1.731880 -0.687739  4.466668
  N    -1.877342  2.914372  4.602477
  S    -2.520206 -1.146214  3.117135
  S    -2.777074  2.444246  3.291918
  S     0.374864 -0.982496  0.205785
  S     0.047013  2.997468  0.259816
  S    -0.097848 -0.358461  4.218253
  S    -0.315019  3.303839  4.291992
