16  
    
  C    -2.657191 -1.617774  2.129056
  C    -2.403522  2.248434  2.129620
  C    -3.982052 -1.903970  1.569097
  C    -3.642781  1.986594  1.474765
  N    -1.756030 -1.417885  1.162250
  N    -1.401056  2.250102  1.280733
  N    -4.011117 -2.108019  0.277553
  N    -3.654928  1.861531  0.150808
  N    -4.443054 -1.724104  4.043780
  N    -4.166357  2.038615  4.052574
  S    -5.244999 -2.180688  2.662625
  S    -4.974008  1.900551  2.602701
  S    -2.506572 -1.681835 -0.276088
  S    -2.016783  1.941357 -0.234838
  S    -2.785573 -1.449677  3.837583
  S    -2.531525  2.334792  3.893616
