16  
    
  C    -4.772252 -2.327121  1.709050
  C    -4.812703  1.075803  1.667001
  C    -5.972816 -2.862765  1.149993
  C    -5.902368  0.373182  1.060010
  N    -3.812323 -2.167360  0.837044
  N    -3.795777  1.371113  0.880401
  N    -5.989478 -3.041515 -0.177418
  N    -5.798332  0.262572 -0.268519
  N    -6.397998 -2.655906  3.742743
  N    -6.788031  0.931335  3.511806
  S    -7.182603 -3.180521  2.348167
  S    -7.329906  0.104019  2.119381
  S    -4.420022 -2.595392 -0.669363
  S    -4.323638  0.863785 -0.643192
  S    -4.816827 -2.171962  3.490263
  S    -5.188476  1.453399  3.344443
