16  
    
  C    -5.385813 -2.398694  1.521574
  C    -5.332419  0.996683  1.379221
  C    -6.601901 -2.794105  0.851468
  C    -6.474576  0.476899  0.744438
  N    -4.443094 -2.019669  0.642981
  N    -4.382576  1.335652  0.508399
  N    -6.475155 -2.978727 -0.459875
  N    -6.388879  0.392172 -0.579691
  N    -7.104836 -2.531476  3.396380
  N    -7.107810  0.902491  3.162395
  S    -7.925865 -2.949376  2.009581
  S    -7.797212  0.303936  1.834485
  S    -5.000136 -2.360196 -0.881311
  S    -4.894298  0.966800 -0.987730
  S    -5.513906 -2.143330  3.227633
  S    -5.516027  1.321755  3.091896
