16  
    
  C    -4.249038 -2.212446  1.622816
  C    -4.222827  1.678178  1.885963
  C    -5.490478 -2.592064  1.026397
  C    -5.450561  1.157438  1.283671
  N    -3.159750 -2.247540  0.819355
  N    -3.143394  1.691759  1.085556
  N    -5.405696 -2.866744 -0.263166
  N    -5.239968  0.665758  0.053887
  N    -5.969941 -1.993071  3.555652
  N    -6.049828  1.471362  3.769560
  S    -6.758391 -2.672199  2.229717
  S    -6.789851  0.997100  2.360967
  S    -3.744980 -2.755623 -0.650221
  S    -3.632182  0.966108 -0.282057
  S    -4.338397 -1.788478  3.375219
  S    -4.546378  2.169652  3.496419
