16  
    
  C    -2.123075 -1.196194  2.003334
  C    -2.667544  2.611877  2.154585
  C    -3.270345 -1.846538  1.420825
  C    -3.851616  1.938751  1.604463
  N    -1.255391 -0.590006  1.176484
  N    -1.649474  2.805800  1.309241
  N    -3.087701 -2.018834  0.103227
  N    -3.674171  1.676954  0.311892
  N    -3.639680 -1.832647  3.956087
  N    -4.397237  2.407435  4.117653
  S    -4.453143 -2.304871  2.595596
  S    -5.147002  1.806390  2.742051
  S    -1.687237 -1.208725 -0.313554
  S    -2.207911  2.286965 -0.175044
  S    -2.205861 -0.911906  3.718314
  S    -2.784079  2.849093  3.851692
