16  
    
  C     2.519755  1.216856  3.368231
  C     2.842426  5.056015  3.783102
  C     1.462008  0.640363  2.614829
  C     1.591210  4.628419  3.235065
  N     3.585406  1.388697  2.599058
  N     3.742158  5.229847  2.813838
  N     1.689224  0.278420  1.362937
  N     1.607584  4.241800  1.964427
  N     0.582555  0.872553  5.064432
  N     1.149833  4.919918  5.703584
  S     0.028038  0.523572  3.496893
  S     0.360801  4.398166  4.373515
  S     3.221251  0.801800  1.094995
  S     3.116738  4.591349  1.451963
  S     2.131178  1.378612  5.099201
  S     2.611058  5.669128  5.420642
