16  
    
  C    -2.704379 -1.706433  1.975820
  C    -3.163091  1.923903  1.751610
  C    -3.965516 -1.860873  1.318203
  C    -4.182295  1.265099  1.040977
  N    -1.709972 -1.626714  1.110265
  N    -2.109213  2.267052  1.016086
  N    -3.909293 -2.143031  0.009018
  N    -3.978622  1.158194 -0.266411
  N    -4.366289 -1.669319  3.856212
  N    -5.083236  1.583849  3.482516
  S    -5.222277 -1.892560  2.489718
  S    -5.687204  1.139643  2.043256
  S    -2.252546 -2.002946 -0.368557
  S    -2.445631  1.846572 -0.538355
  S    -2.728922 -1.430827  3.640334
  S    -3.574648  2.170742  3.417833
