16  
    
  C     3.640781  1.866430  3.640868
  C     3.204160  5.229280  3.502798
  C     2.440785  1.420463  3.022060
  C     1.967432  4.827537  2.832208
  N     4.618957  2.021562  2.715338
  N     4.221413  5.536005  2.669787
  N     2.495853  1.326499  1.692819
  N     2.159103  4.553101  1.554482
  N     2.004518  1.309486  5.539519
  N     1.522088  5.075657  5.335735
  S     1.060739  1.218407  4.142366
  S     0.739562  4.441052  3.983541
  S     4.036432  1.730616  1.245596
  S     3.678369  5.182082  1.201038
  S     3.463090  2.142890  5.311323
  S     3.163895  5.368721  5.129381
