16  
    
  C     1.892204  0.553770  3.154335
  C     1.946129  4.069451  3.185487
  C     0.586599  0.359510  2.602292
  C     0.606796  4.010149  2.579715
  N     2.857777  0.516697  2.261388
  N     2.887941  4.387142  2.287019
  N     0.530202  0.271055  1.291666
  N     0.625205  3.874913  1.255462
  N     0.330794  0.519731  5.155266
  N     0.180538  4.291170  5.119998
  S    -0.581277  0.135428  3.822062
  S    -0.756072  4.046700  3.723257
  S     2.160000  0.337024  0.796794
  S     2.206299  4.054634  0.832884
  S     1.985821  0.785943  4.840467
  S     1.798473  4.257106  4.884447
