16  
    
  C    -5.433805 -2.389653  1.313069
  C    -5.427697  1.092599  1.301353
  C    -6.621790 -2.969261  0.754905
  C    -6.585855  0.583830  0.559169
  N    -4.420136 -2.340128  0.446137
  N    -4.425202  1.481470  0.501004
  N    -6.554890 -3.037945 -0.586099
  N    -6.478536  0.490716 -0.777928
  N    -6.866004 -3.070126  3.368087
  N    -7.167220  0.514388  3.145727
  S    -7.895092 -3.355726  2.012587
  S    -7.860856  0.095688  1.644170
  S    -4.980867 -2.752365 -1.029234
  S    -4.895582  1.064537 -1.066834
  S    -5.372497 -2.358310  3.063392
  S    -5.595419  1.210689  3.042679
