16  
    
  C    -3.885926 -2.133066  1.713438
  C    -3.585573  2.043720  1.626700
  C    -5.120862 -2.546439  1.044898
  C    -4.779604  1.489690  1.096203
  N    -2.955361 -1.851508  0.828545
  N    -2.560308  2.288464  0.828848
  N    -5.094335 -2.543349 -0.283780
  N    -4.710241  1.339356 -0.207746
  N    -5.613790 -2.556082  3.595772
  N    -5.130307  1.424612  3.547195
  S    -6.432341 -2.697197  2.166293
  S    -5.989537  0.990973  2.195372
  S    -3.542627 -2.047119 -0.699458
  S    -3.168772  1.783237 -0.670172
  S    -3.973798 -2.299075  3.436499
  S    -3.653068  2.153186  3.393323
