16  
    
  C    -5.426015 -2.403211  1.306289
  C    -5.431274  1.060001  1.294723
  C    -6.617573 -2.988635  0.765991
  C    -6.591067  0.588535  0.572951
  N    -4.419327 -2.334856  0.436748
  N    -4.443766  1.472865  0.487420
  N    -6.544219 -3.048723 -0.586512
  N    -6.458149  0.487243 -0.766401
  N    -6.861811 -3.083887  3.360250
  N    -7.175833  0.493554  3.131644
  S    -7.891016 -3.374478  2.017057
  S    -7.875091  0.099343  1.636906
  S    -4.981394 -2.773810 -1.027095
  S    -4.896179  1.077202 -1.065824
  S    -5.366102 -2.376695  3.057238
  S    -5.596239  1.217152  3.043254
