16  
    
  C    -4.112214 -2.042993  1.768336
  C    -4.149304  1.248909  1.755921
  C    -5.503759 -2.271315  1.328264
  C    -5.372333  1.280583  1.038839
  N    -3.168904 -2.177119  0.859533
  N    -3.081195  1.258348  1.007526
  N    -5.531152 -2.378654 -0.000205
  N    -5.278354  1.125173 -0.272358
  N    -5.686506 -2.090315  3.877634
  N    -5.982115  1.519963  3.472556
  S    -6.701482 -2.284509  2.574147
  S    -6.797342  1.282877  1.988755
  S    -3.933750 -2.429054 -0.592585
  S    -3.602611  1.155206 -0.564121
  S    -4.028606 -1.962818  3.527028
  S    -4.321624  1.642147  3.449498
