16  
    
  C    -0.050679 -0.542127  2.447347
  C    -0.237219  3.324180  2.596305
  C    -1.260354 -1.012816  1.819013
  C    -1.394821  2.677942  2.019089
  N     0.983414 -0.529522  1.619647
  N     0.826475  3.426658  1.806030
  N    -1.260537 -0.984515  0.475230
  N    -1.257118  2.398388  0.720329
  N    -1.685646 -0.857132  4.333665
  N    -1.951658  2.860929  4.544132
  S    -2.460655 -1.282771  2.970965
  S    -2.657810  2.234968  3.162697
  S     0.390433 -0.797173  0.065669
  S     0.247759  2.942910  0.292733
  S    -0.057711 -0.413931  4.174581
  S    -0.405079  3.472926  4.297022
