16  
    
  C    -0.675985 -0.596505  2.462905
  C    -0.488844  3.359110  2.939275
  C    -1.973383 -0.994715  1.797925
  C    -1.634849  2.908076  2.248812
  N     0.362727 -0.555975  1.611774
  N     0.603455  3.395295  2.179722
  N    -1.868982 -0.911803  0.475266
  N    -1.501104  2.591652  0.955647
  N    -2.525065 -0.718421  4.294765
  N    -2.312060  3.420387  4.744560
  S    -3.377987 -1.077473  2.877811
  S    -2.998401  2.753766  3.360926
  S    -0.271218 -0.710083  0.069747
  S     0.085975  3.065181  0.628246
  S    -0.899399 -0.407835  4.127434
  S    -0.675503  3.764231  4.597590
