16  
    
  C     3.271500  1.474552  3.579929
  C     3.120104  5.077583  3.463539
  C     1.935873  1.421501  2.989031
  C     1.889508  4.779671  2.800033
  N     4.332789  1.405109  2.773286
  N     4.202343  5.055645  2.686295
  N     1.983437  1.344740  1.662903
  N     2.037150  4.653577  1.476645
  N     1.624422  1.308225  5.500154
  N     1.411227  5.152544  5.301787
  S     0.654878  1.352395  4.169091
  S     0.548188  4.737199  3.937059
  S     3.585462  1.323119  1.235699
  S     3.668828  4.652313  1.227491
  S     3.262876  1.691732  5.335173
  S     3.070515  5.232031  5.187997
