16  
    
  C    -4.661744 -2.489478  1.565077
  C    -4.710908  1.007604  1.429588
  C    -5.975291 -2.879166  1.044300
  C    -5.925956  0.669879  0.729248
  N    -3.722673 -2.486855  0.655112
  N    -3.676094  1.025773  0.629245
  N    -5.979409 -3.173307 -0.242918
  N    -5.768902  0.669343 -0.616486
  N    -6.373524 -2.597914  3.556354
  N    -6.620905  0.911954  3.282326
  S    -7.269212 -3.032338  2.196482
  S    -7.292812  0.451903  1.800730
  S    -4.438402 -2.976913 -0.774686
  S    -4.218574  0.951738 -0.926430
  S    -4.697378 -2.428822  3.249868
  S    -4.908053  1.154196  3.182728
