16  
    
  C     3.556994  2.116029  3.605929
  C     3.366596  5.377894  3.551162
  C     2.421659  1.591108  2.878198
  C     2.152728  4.878631  2.878434
  N     4.642160  2.263342  2.883735
  N     4.354564  5.583691  2.666109
  N     2.639437  1.329155  1.586635
  N     2.205549  4.804467  1.547582
  N     1.897766  1.676890  5.440664
  N     1.600870  4.916689  5.458108
  S     1.112711  1.302927  4.059390
  S     0.865078  4.537107  4.043000
  S     4.234266  1.695715  1.312090
  S     3.763105  5.136870  1.106488
  S     3.448890  2.170383  5.296528
  S     3.224572  5.351849  5.309120
