16  
    
  C     1.005977  0.063964  2.970035
  C     1.014663  3.996216  2.704033
  C    -0.286144 -0.108913  2.394931
  C    -0.222112  3.417850  2.240427
  N     2.027426  0.223617  2.090848
  N     1.918980  4.146097  1.757907
  N    -0.279205 -0.175406  1.049784
  N    -0.186778  2.895274  1.017094
  N    -0.626899 -0.138265  4.942032
  N    -0.688570  4.347667  4.620667
  S    -1.528597 -0.349993  3.630775
  S    -1.443436  3.407778  3.434036
  S     1.288429  0.015910  0.584165
  S     1.326565  3.236511  0.471366
  S     0.934660  0.146495  4.687849
  S     0.896011  4.691658  4.339699
