16  
    
  C     1.385109  0.796772  3.365703
  C     1.189279  4.463790  3.169564
  C     0.145078  0.288062  2.860250
  C     0.001489  3.955703  2.563435
  N     2.369305  0.912161  2.498459
  N     2.167208  4.604383  2.275158
  N     0.187834 -0.093464  1.569931
  N    -0.089366  4.122484  1.244062
  N    -0.226775  0.989283  5.368637
  N    -0.408543  4.188788  5.189078
  S    -1.110498  0.501728  4.000675
  S    -1.241940  3.795617  3.733177
  S     1.747732  0.312337  1.090244
  S     1.527371  4.413808  0.737581
  S     1.381676  1.194129  5.045463
  S     1.153631  4.591281  4.868378
