16  
    
  C     2.593744  1.108779  3.341091
  C     2.616509  5.204319  3.639257
  C     1.433757  0.590082  2.601207
  C     1.447666  4.520148  3.156187
  N     3.692597  1.363654  2.630589
  N     3.656270  5.104669  2.794181
  N     1.706626  0.348694  1.330003
  N     1.511000  4.233850  1.853285
  N     0.647159  0.983292  4.964175
  N     0.994715  4.955493  5.670417
  S    -0.099788  0.506251  3.556837
  S     0.238264  4.178135  4.380234
  S     3.238099  0.847677  1.015688
  S     3.073834  4.575045  1.323980
  S     2.245798  1.386060  4.997749
  S     2.610233  5.537761  5.320502
