16  
    
  C    -0.186965 -0.212411  2.565768
  C    -0.002519  3.741043  2.334228
  C    -1.461077 -0.679637  2.012474
  C    -1.206468  3.198779  1.790142
  N     0.758415 -0.113417  1.651150
  N     1.081254  3.702468  1.540488
  N    -1.490472 -0.712036  0.684979
  N    -1.149159  2.900837  0.514141
  N    -1.731315 -0.325999  4.598061
  N    -1.685160  3.507027  4.295364
  S    -2.631619 -0.680367  3.244611
  S    -2.531503  3.033627  2.926945
  S     0.091118 -0.367387  0.112728
  S     0.376223  3.306912  0.034133
  S    -0.108133 -0.103386  4.318971
  S    -0.106037  3.954147  4.124150
