16  
    
  C     0.177442  0.087275  2.702744
  C     0.026383  3.662986  2.709492
  C    -0.964485 -0.570648  2.110442
  C    -1.018893  2.888401  2.005993
  N     1.209487  0.264699  1.879934
  N     1.107417  3.779765  1.969406
  N    -0.838705 -0.702632  0.790957
  N    -0.800664  2.765720  0.691306
  N    -1.538972 -0.289223  4.643042
  N    -1.657516  3.172195  4.526031
  S    -2.277049 -0.914165  3.262109
  S    -2.323601  2.565636  3.103601
  S     0.682941 -0.208856  0.390781
  S     0.727055  3.394717  0.409853
  S    -0.010889  0.321618  4.441778
  S    -0.184570  3.879147  4.415415
