16  
    
  C    -0.536513 -0.450356  2.652350
  C    -0.282328  3.256194  2.696438
  C    -1.739151 -0.657652  1.980281
  C    -1.488364  2.654253  2.045245
  N     0.488968 -0.362020  1.833277
  N     0.717689  3.505348  1.855027
  N    -1.647094 -0.847369  0.685310
  N    -1.303891  2.345107  0.758779
  N    -2.343588 -0.631218  4.484526
  N    -2.185341  3.148159  4.442214
  S    -3.064497 -1.018889  3.024472
  S    -2.753315  2.333549  3.116955
  S    -0.085966 -0.576967  0.280596
  S     0.246232  2.750371  0.392302
  S    -0.743358 -0.074760  4.377454
  S    -0.689836  3.780541  4.365962
