16  
    
  C     1.386431  0.646880  3.094065
  C     1.055671  4.217426  2.814691
  C     0.131412  0.239368  2.483791
  C    -0.133401  3.788014  2.035952
  N     2.393969  0.848224  2.241961
  N     2.126432  4.623522  2.095408
  N     0.141491  0.112630  1.169676
  N     0.134025  3.607486  0.747535
  N    -0.378560  0.716946  4.951135
  N    -0.863112  3.860571  4.446798
  S    -1.126370  0.166431  3.613436
  S    -1.457086  3.312142  2.990923
  S     1.694894  0.503300  0.733058
  S     1.698935  4.190577  0.500485
  S     1.256409  0.977875  4.827286
  S     0.658453  4.354054  4.475446
