16  
    
  C     1.178472  0.124511  3.019213
  C     0.620564  3.690569  3.185880
  C    -0.012237 -0.319321  2.426367
  C    -0.487977  3.257383  2.384163
  N     2.221307  0.317770  2.230367
  N     1.617271  4.181597  2.479065
  N     0.077970 -0.597744  1.112331
  N    -0.275571  3.252329  1.047344
  N    -0.585789  0.122485  4.861651
  N    -1.221036  3.063344  4.844845
  S    -1.355363 -0.390843  3.502310
  S    -1.822854  2.793112  3.274658
  S     1.656257 -0.165159  0.723674
  S     1.283033  3.855673  0.854500
  S     0.950943  0.575996  4.635195
  S     0.265498  3.705446  4.943676
