16  
    
  C    -3.007757 -1.279636  2.128221
  C    -3.173203  1.753334  2.001250
  C    -4.243642 -1.728117  1.513350
  C    -4.379793  1.386039  1.320088
  N    -1.933355 -1.202044  1.343776
  N    -2.096566  1.940881  1.249981
  N    -4.131322 -1.900621  0.218041
  N    -4.240450  1.350809  0.000231
  N    -4.797064 -1.668661  4.044869
  N    -5.085923  1.607057  3.743177
  S    -5.539459 -1.971385  2.633707
  S    -5.790394  1.248947  2.236317
  S    -2.568804 -1.562524 -0.213689
  S    -2.660455  1.706539 -0.315306
  S    -3.231077 -1.084158  3.866854
  S    -3.425785  1.967950  3.698799
