16  
    
  C    -0.167009 -0.392871  2.448827
  C    -0.352264  3.260362  2.536257
  C    -1.277421 -0.887371  1.732490
  C    -1.706607  3.088752  1.991467
  N     0.902211 -0.188239  1.717536
  N     0.615468  3.560319  1.653519
  N    -1.043439 -1.088607  0.438108
  N    -1.654149  2.951613  0.648296
  N    -1.883953 -0.610834  4.277258
  N    -1.999102  3.174895  4.556396
  S    -2.539854 -1.225541  2.874142
  S    -2.926458  2.970718  3.216129
  S     0.493614 -0.553244  0.178654
  S    -0.057731  3.162135  0.185872
  S    -0.365349  0.044997  4.154328
  S    -0.382116  3.479911  4.246027
