16  
    
  C     2.581028  1.171234  3.341562
  C     2.701480  5.204704  3.653285
  C     1.453554  0.585695  2.656802
  C     1.479783  4.552290  3.173988
  N     3.656919  1.367658  2.597016
  N     3.741982  5.116168  2.845453
  N     1.693529  0.314169  1.386947
  N     1.520493  4.243319  1.897958
  N     0.559897  0.908522  4.993506
  N     1.102573  4.956641  5.634933
  S    -0.053364  0.529279  3.519394
  S     0.277888  4.228457  4.363596
  S     3.239052  0.841967  1.045620
  S     3.066056  4.574314  1.379641
  S     2.217120  1.391891  5.039281
  S     2.616893  5.604590  5.388435
