16  
    
  C    -0.078987 -0.494945  2.604639
  C     0.065167  3.491583  2.343922
  C    -1.432032 -0.613190  2.035692
  C    -1.182734  3.251437  1.756707
  N     0.857594 -0.270055  1.667963
  N     1.054914  3.694474  1.489174
  N    -1.441587 -0.681393  0.712169
  N    -1.154920  3.170790  0.445233
  N    -1.795471 -0.378754  4.523573
  N    -1.693684  3.500998  4.293569
  S    -2.725926 -0.680527  3.192799
  S    -2.502475  3.048286  2.934711
  S     0.075486 -0.353107  0.244322
  S     0.435675  3.392089 -0.000948
  S    -0.160622 -0.105433  4.275584
  S    -0.036692  3.852379  4.027250
