16  
    
  C    -0.086488 -0.467579  2.581705
  C     0.078326  3.497456  2.380772
  C    -1.428685 -0.636031  2.010073
  C    -1.202687  3.287059  1.779021
  N     0.846308 -0.254882  1.661312
  N     1.051627  3.703073  1.478404
  N    -1.454120 -0.683239  0.692565
  N    -1.154877  3.121820  0.458224
  N    -1.781569 -0.371103  4.535432
  N    -1.689185  3.504534  4.289444
  S    -2.718306 -0.677949  3.198371
  S    -2.511115  3.045554  2.936324
  S     0.067914 -0.352477  0.240186
  S     0.434837  3.383140  0.000968
  S    -0.148521 -0.100496  4.288171
  S    -0.052178  3.866301  4.024407
