16  
    
  C    -5.779772 -3.094572  1.550342
  C    -6.136836  0.957936  1.464406
  C    -7.014852 -3.333676  0.757966
  C    -7.270279  0.256167  0.893326
  N    -4.644970 -2.972590  0.877407
  N    -5.303760  1.298107  0.509282
  N    -6.743244 -3.607872 -0.530549
  N    -7.278029  0.121207 -0.433207
  N    -7.596555 -3.449230  3.309517
  N    -7.561133  0.206464  3.427567
  S    -8.379724 -3.709147  1.856243
  S    -8.332602 -0.405969  2.082979
  S    -5.072729 -3.319232 -0.745658
  S    -5.855130  0.833604 -0.977455
  S    -6.036329 -2.814779  3.226391
  S    -6.044824  0.961454  3.157352
