16  
    
  C     2.243595  0.949131  3.306179
  C     2.164995  4.425026  2.932377
  C     0.935493  0.624541  2.736243
  C     0.874414  4.168025  2.286812
  N     3.233305  1.065223  2.434377
  N     3.201140  4.659256  2.104292
  N     0.949169  0.501979  1.418330
  N     0.953759  4.026242  0.982240
  N     0.388545  1.012049  5.225713
  N     0.355642  4.413274  4.820081
  S    -0.409614  0.510896  3.806082
  S    -0.369872  3.790385  3.416238
  S     2.543169  0.814995  0.886337
  S     2.567099  4.263455  0.577084
  S     2.021835  1.211074  5.041365
  S     1.975004  4.692402  4.744526
