16  
    
  C     1.868255  0.470146  3.034708
  C     1.866634  4.116899  3.253739
  C     0.577738  0.165800  2.511530
  C     0.581418  4.131705  2.637105
  N     2.800063  0.643230  2.113481
  N     2.922753  4.318264  2.421748
  N     0.520071  0.094287  1.212881
  N     0.670700  3.933382  1.294652
  N     0.250170  0.257813  5.138284
  N     0.185490  4.004279  5.187369
  S    -0.683292  0.164136  3.720493
  S    -0.686082  3.961273  3.777234
  S     2.057624  0.420416  0.651844
  S     2.219457  4.227663  0.954848
  S     1.813749  0.676273  4.756752
  S     1.783122  4.201050  5.048336
