16  
    
  C    -1.440450 -0.912519  2.359216
  C    -1.520939  2.803586  2.027032
  C    -2.505850 -1.466251  1.597926
  C    -2.598599  2.028102  1.408480
  N    -0.279796 -0.704653  1.684917
  N    -0.508678  3.175981  1.262790
  N    -2.283456 -1.526740  0.279495
  N    -2.303732  1.778662  0.151237
  N    -3.300334 -1.500193  3.999443
  N    -3.368318  2.401035  3.857456
  S    -3.947048 -1.699095  2.479503
  S    -3.887209  1.640208  2.485002
  S    -0.678240 -1.031721  0.082660
  S    -0.824611  2.437519 -0.184111
  S    -1.748506 -0.908789  4.090138
  S    -1.875685  3.108076  3.737274
