16  
    
  C     3.476407  1.687517  3.573305
  C     3.008090  5.335846  3.390426
  C     2.193902  1.255729  3.082346
  C     1.896744  4.609593  2.808029
  N     4.409171  1.930874  2.653096
  N     4.080542  5.430554  2.601876
  N     2.155595  1.080239  1.742892
  N     2.024043  4.447642  1.483891
  N     1.988917  1.463825  5.633498
  N     1.321394  4.878198  5.222461
  S     1.060406  0.920518  4.384808
  S     0.601619  4.313546  3.834175
  S     3.711455  1.512982  1.226328
  S     3.581094  4.981222  1.144179
  S     3.602180  1.703567  5.328306
  S     2.835174  5.513257  5.048073
