16  
    
  C    -4.145135 -2.048641  1.857800
  C    -4.148356  1.406679  1.740245
  C    -5.509948 -2.171357  1.354892
  C    -5.409605  1.180749  1.074966
  N    -3.219668 -2.033619  0.927991
  N    -3.040032  1.277629  1.018649
  N    -5.577644 -2.477313  0.043867
  N    -5.210065  1.163068 -0.237990
  N    -5.655839 -2.227984  3.940114
  N    -6.082661  1.543255  3.511305
  S    -6.658325 -2.281086  2.621111
  S    -6.842287  1.266396  2.063332
  S    -4.033727 -2.449668 -0.448805
  S    -3.616223  1.154353 -0.530524
  S    -4.074054 -2.039017  3.581600
  S    -4.406445  1.553927  3.485150
