16  
    
  C     0.995652  0.217474  3.066983
  C     1.093374  4.131894  2.637819
  C    -0.211457  0.065884  2.360980
  C    -0.139223  3.466584  2.092601
  N     2.104234  0.286463  2.301709
  N     2.112218  4.282977  1.798701
  N    -0.098884 -0.144453  1.059238
  N     0.088302  2.891919  0.932654
  N    -0.734030 -0.098791  4.781840
  N    -0.765116  4.318881  4.465850
  S    -1.554939 -0.014814  3.372285
  S    -1.469755  3.354044  3.237971
  S     1.503732  0.039577  0.741343
  S     1.569764  3.431393  0.389714
  S     0.832166  0.269030  4.781262
  S     0.780067  4.737756  4.172856
