16  
    
  C    -2.921985 -1.641548  1.995665
  C    -2.455522  2.211960  1.980558
  C    -4.059640 -2.224860  1.314830
  C    -3.788720  1.979586  1.433824
  N    -1.936797 -1.294267  1.172418
  N    -1.449013  2.051443  1.111969
  N    -3.999965 -2.188064 -0.003211
  N    -3.739640  1.584500  0.169458
  N    -4.678226 -2.097028  3.841406
  N    -4.189656  2.235500  3.957373
  S    -5.320190 -2.594692  2.428866
  S    -5.059282  2.087834  2.531937
  S    -2.488850 -1.606400 -0.368824
  S    -2.130851  1.621620 -0.304938
  S    -3.059213 -1.595680  3.751784
  S    -2.540014  2.315824  3.712946
