16  
    
  C    -4.917066 -2.543384  1.939085
  C    -5.362492  0.936434  1.781944
  C    -6.104676 -3.065590  1.299260
  C    -6.587377  0.670926  1.063273
  N    -3.846161 -2.535889  1.145111
  N    -4.368117  1.082038  0.924122
  N    -5.988618 -3.175686 -0.012436
  N    -6.443745  0.481393 -0.233464
  N    -6.806139 -2.594930  3.779824
  N    -7.166761  1.023392  3.624244
  S    -7.512173 -3.055116  2.349378
  S    -7.906001  0.621595  2.173789
  S    -4.407597 -2.977489 -0.392319
  S    -4.877762  0.833156 -0.588747
  S    -5.183681 -2.285089  3.646287
  S    -5.519937  1.343719  3.456679
