16  
    
  C    -0.863092 -0.522233  2.408920
  C    -0.566019  3.182960  2.861602
  C    -2.188775 -0.982412  1.799746
  C    -1.782944  2.883305  2.244933
  N     0.190952 -0.566099  1.607394
  N     0.502071  3.213539  2.029263
  N    -2.111370 -1.067363  0.483117
  N    -1.675788  2.522974  0.960086
  N    -2.774791 -0.674467  4.243636
  N    -2.406139  3.219557  4.732364
  S    -3.555606 -1.190782  2.869150
  S    -3.129928  2.738815  3.277953
  S    -0.441768 -0.944460  0.084776
  S    -0.093449  2.781436  0.561381
  S    -1.098929 -0.471245  4.136651
  S    -0.770204  3.677704  4.550716
