16  
    
  C    -1.797868 -1.034369  2.342613
  C    -1.895644  2.434016  2.495819
  C    -3.114111 -1.290574  1.769690
  C    -3.047009  1.908556  1.848796
  N    -0.765729 -1.057374  1.478839
  N    -0.801891  2.569496  1.770755
  N    -3.086621 -1.442202  0.432185
  N    -2.898024  1.830584  0.542779
  N    -3.347201 -1.220632  4.362493
  N    -3.698278  2.085688  4.295166
  S    -4.292340 -1.382524  3.063635
  S    -4.379089  1.616982  2.873301
  S    -1.456784 -1.361808 -0.021182
  S    -1.284324  2.235188  0.226732
  S    -1.761125 -0.692353  4.074336
  S    -2.103426  2.579682  4.270205
