16  
    
  C    -4.812694 -2.334974  1.793444
  C    -5.038501  1.193922  1.737246
  C    -6.009926 -2.901444  1.227864
  C    -6.184965  0.494976  1.134464
  N    -3.811201 -2.124594  0.960094
  N    -3.925243  1.318190  1.014443
  N    -5.926045 -3.096805 -0.085980
  N    -5.978310  0.251853 -0.164107
  N    -6.382932 -3.050604  3.721819
  N    -6.863993  0.948629  3.633397
  S    -7.301777 -3.245664  2.304136
  S    -7.519918  0.148340  2.219298
  S    -4.392755 -2.575394 -0.526939
  S    -4.408719  0.731444 -0.498496
  S    -4.949884 -2.151554  3.513045
  S    -5.262896  1.486962  3.448076
