16  
    
  C     2.287023  0.740440  3.523436
  C     1.865086  5.082460  3.158800
  C     1.001214  0.600120  2.896080
  C     0.798320  4.551070  2.325579
  N     3.305816  0.753506  2.662408
  N     2.918552  5.313808  2.424023
  N     1.074331  0.581128  1.561731
  N     1.115323  4.322591  1.059102
  N     0.644503  1.070549  5.503570
  N    -0.023679  4.821770  4.795889
  S    -0.276041  0.547579  4.180836
  S    -0.551871  4.100126  3.393131
  S     2.675926  0.654213  1.164525
  S     2.709327  4.847445  0.855851
  S     2.262789  1.143184  5.226123
  S     1.617887  5.295352  4.855255
