16  
    
  C    -4.039188 -1.803488  1.669163
  C    -3.756043  1.651709  1.802185
  C    -5.187964 -2.358808  1.011027
  C    -5.013384  1.365976  1.176137
  N    -2.905061 -1.702091  0.942574
  N    -2.720733  1.798982  0.991788
  N    -4.961400 -2.626633 -0.280869
  N    -4.987288  1.315149 -0.160966
  N    -5.832715 -1.997346  3.508535
  N    -5.473833  1.547178  3.665146
  S    -6.512498 -2.390259  2.088735
  S    -6.351167  1.204934  2.298579
  S    -3.375267 -2.187463 -0.594181
  S    -3.428824  1.569775 -0.585716
  S    -4.251361 -1.481143  3.405163
  S    -3.852335  1.742882  3.528484
