16  
    
  C    -1.347365 -0.567938  1.828925
  C    -1.200378  3.274600  2.097731
  C    -2.630202 -1.236280  1.470354
  C    -2.443849  2.771607  1.574874
  N    -0.489294 -0.574420  0.810010
  N    -0.286383  3.678635  1.205250
  N    -2.751826 -1.389062  0.180373
  N    -2.405040  2.559356  0.254850
  N    -2.788465 -0.546081  4.017085
  N    -2.779190  2.913131  4.077239
  S    -3.695451 -1.400639  2.840043
  S    -3.559445  2.285734  2.771216
  S    -1.340206 -1.046999 -0.518802
  S    -0.968517  3.265551 -0.270797
  S    -1.235336 -0.174312  3.499290
  S    -1.290363  3.585617  3.851214
