16  
    
  C     2.209749  0.936187  3.406467
  C     2.081957  4.595693  2.972795
  C     0.958496  0.582886  2.812452
  C     0.819250  4.321134  2.327666
  N     3.229973  1.115592  2.588042
  N     3.132869  4.890959  2.166832
  N     1.016025  0.340295  1.498051
  N     0.931860  4.067825  1.005554
  N     0.588671  0.896319  5.289783
  N     0.313825  4.397591  4.911461
  S    -0.318763  0.657263  3.946417
  S    -0.450571  3.897782  3.442228
  S     2.643526  0.732758  1.078212
  S     2.488566  4.492123  0.671996
  S     2.203833  1.017045  5.100779
  S     1.895701  4.886384  4.614373
