16  
    
  C    -0.533426 -0.469690  2.663595
  C    -0.286276  3.267651  2.677664
  C    -1.736972 -0.657344  1.971855
  C    -1.482857  2.638791  2.045868
  N     0.494989 -0.362963  1.823458
  N     0.726718  3.496144  1.855783
  N    -1.626458 -0.847402  0.666820
  N    -1.320789  2.374630  0.756823
  N    -2.353339 -0.621533  4.478964
  N    -2.177983  3.151612  4.436048
  S    -3.046636 -1.014689  3.015315
  S    -2.756777  2.343176  3.122332
  S    -0.077697 -0.567253  0.283081
  S     0.236277  2.751385  0.389099
  S    -0.745894 -0.067141  4.377338
  S    -0.686826  3.775800  4.359861
