16  
    
  C     0.833257  0.325934  2.999759
  C     0.550527  3.738851  2.925123
  C    -0.415032  0.082782  2.300771
  C    -0.760805  3.438890  2.393755
  N     1.884010  0.411665  2.175851
  N     1.538991  3.819345  2.046854
  N    -0.249652 -0.193972  1.014351
  N    -0.774606  3.504982  1.085603
  N    -0.942752  0.284056  4.867039
  N    -1.123534  3.622779  4.915518
  S    -1.704581 -0.077120  3.446146
  S    -2.045880  3.288733  3.630073
  S     1.339843  0.025410  0.656026
  S     0.778349  3.511284  0.566274
  S     0.658648  0.716177  4.693976
  S     0.519738  3.957443  4.653096
