16  
    
  C     1.385241  0.735160  2.938610
  C     0.959294  4.127110  2.607025
  C     0.197956  0.301400  2.273518
  C    -0.203817  3.558678  1.941635
  N     2.394024  1.036553  2.090088
  N     1.997648  4.304473  1.813437
  N     0.333374  0.133335  0.942750
  N     0.037396  3.385988  0.660517
  N    -0.280745  0.280520  4.884746
  N    -0.925304  3.732977  4.317372
  S    -1.107832  0.117061  3.479459
  S    -1.547466  3.149132  2.971305
  S     1.894261  0.663953  0.576029
  S     1.544106  3.964365  0.299758
  S     1.314926  0.752986  4.679509
  S     0.600488  4.368458  4.234564
