16  
    
  C    -2.820927 -1.726777  1.999461
  C    -2.382767  2.207783  2.003752
  C    -4.055339 -2.095035  1.361661
  C    -3.685506  1.930352  1.448047
  N    -1.936657 -1.252002  1.127648
  N    -1.394090  1.975348  1.158666
  N    -4.041663 -2.164590  0.036820
  N    -3.710294  1.618704  0.162567
  N    -4.590138 -2.028130  3.918843
  N    -4.139358  2.207661  3.933210
  S    -5.289305 -2.581269  2.472456
  S    -5.059267  2.103382  2.540981
  S    -2.545093 -1.612283 -0.415881
  S    -2.172557  1.573257 -0.303949
  S    -3.034674 -1.592761  3.799679
  S    -2.450176  2.338223  3.725253
