16  
    
  C     1.784841  0.608375  3.015530
  C     1.945551  4.187036  3.379743
  C     0.493927  0.220761  2.424920
  C     0.654974  4.217868  2.673569
  N     2.755899  0.820939  2.143231
  N     2.965474  4.367857  2.511536
  N     0.600494  0.089805  1.127460
  N     0.741409  4.141995  1.295963
  N     0.139063  0.361224  5.046185
  N     0.202871  3.949106  5.214304
  S    -0.802209 -0.015133  3.577187
  S    -0.642450  3.728833  3.818382
  S     2.125289  0.472723  0.660819
  S     2.312913  4.399359  1.011898
  S     1.778306  0.448978  4.752114
  S     1.797256  4.275587  5.125346
