16  
    
  C    -0.212104 -0.488970  2.676099
  C     0.084864  3.301087  2.508287
  C    -1.327088 -0.905028  1.900188
  C    -1.165840  2.955802  1.760789
  N     0.875331 -0.181577  1.952629
  N     1.156122  3.568038  1.729327
  N    -1.107041 -0.989395  0.587350
  N    -0.932487  2.750609  0.463767
  N    -2.087380 -0.820005  4.407425
  N    -1.740365  2.976088  4.258723
  S    -2.611097 -1.408582  2.953081
  S    -2.397737  2.309861  2.871283
  S     0.507703 -0.528303  0.329875
  S     0.594075  3.303595  0.166731
  S    -0.464669 -0.348562  4.412257
  S    -0.190333  3.501678  4.149992
