16  
    
  C     0.279597  0.057746  2.742005
  C     0.103107  3.537081  2.731201
  C    -0.938820 -0.433652  2.109696
  C    -0.962432  2.937076  2.046671
  N     1.284897  0.381874  1.880318
  N     1.125498  3.945997  1.982964
  N    -0.741595 -0.770652  0.822222
  N    -0.798027  2.835508  0.750729
  N    -1.488954 -0.343843  4.670126
  N    -1.629710  3.069670  4.572897
  S    -2.245355 -0.872534  3.293707
  S    -2.329380  2.624749  3.096869
  S     0.792015 -0.251102  0.372926
  S     0.788504  3.434937  0.447337
  S     0.065307  0.225133  4.473587
  S    -0.130153  3.793669  4.446805
