16  
    
  C    -1.788482 -1.082619  2.545814
  C    -1.852084  2.500763  2.506782
  C    -2.959126 -1.410960  1.852772
  C    -3.087456  2.220343  1.829900
  N    -0.727447 -1.011462  1.726389
  N    -0.812816  2.576466  1.699558
  N    -2.859965 -1.531963  0.498771
  N    -3.027336  2.301994  0.507113
  N    -3.557929 -1.397622  4.396111
  N    -3.643598  2.270273  4.323881
  S    -4.255225 -1.766857  2.953080
  S    -4.480869  1.972861  2.895906
  S    -1.253905 -1.275255  0.165890
  S    -1.396893  2.400748  0.134224
  S    -1.999876 -0.896331  4.302643
  S    -1.993157  2.508535  4.197531
