16  
    
  C    -4.727603 -2.783743  1.491028
  C    -4.662227  0.861617  1.405316
  C    -6.027648 -3.041733  0.943184
  C    -5.929868  0.629030  0.757710
  N    -3.722920 -2.754136  0.646881
  N    -3.608632  1.019694  0.640097
  N    -5.967918 -3.135225 -0.380981
  N    -5.755953  0.752181 -0.563368
  N    -6.398053 -2.599530  3.515708
  N    -6.509134  0.810059  3.285259
  S    -7.299446 -2.981627  2.127248
  S    -7.358366  0.691437  1.776391
  S    -4.406073 -2.888427 -0.880535
  S    -4.172332  0.975388 -0.908084
  S    -4.727667 -2.470744  3.248683
  S    -4.839308  1.049251  3.095758
