16  
    
  C    -0.047135  0.034603  2.591549
  C    -0.033137  3.575681  2.568709
  C    -1.278117 -0.526211  2.046800
  C    -1.183057  3.049166  1.920691
  N     0.892522  0.261122  1.705305
  N     0.975201  3.821673  1.733790
  N    -1.232750 -0.732473  0.743388
  N    -0.980366  2.554966  0.667245
  N    -1.607258 -0.428762  4.644707
  N    -1.755347  3.463847  4.436316
  S    -2.490660 -0.822634  3.313075
  S    -2.443917  2.678018  3.072655
  S     0.287515 -0.244709  0.194427
  S     0.542053  3.188847  0.257119
  S    -0.129141  0.274281  4.341149
  S    -0.245151  4.088213  4.230017
