16  
    
  C     1.132773  0.147082  2.938261
  C     0.826459  3.827338  3.087273
  C    -0.161133 -0.399994  2.481942
  C    -0.394000  3.382274  2.510170
  N     2.021380  0.289822  1.987142
  N     1.814850  3.819066  2.225568
  N    -0.134763 -0.783519  1.213218
  N    -0.410281  3.242230  1.206272
  N    -0.341285  0.008228  4.935167
  N    -0.832968  3.374264  5.066231
  S    -1.372121 -0.559214  3.713985
  S    -1.730429  3.230248  3.624172
  S     1.361151 -0.334017  0.611680
  S     1.154227  3.621186  0.717180
  S     1.204127  0.496475  4.630918
  S     0.759991  3.815927  4.862022
