16  
    
  C     1.038312  0.202664  3.043907
  C     0.953496  4.209698  2.575837
  C    -0.256108  0.012772  2.351809
  C    -0.098089  3.353933  2.228117
  N     2.053356  0.258158  2.171334
  N     2.041126  4.104206  1.740020
  N    -0.170493 -0.126774  1.045857
  N     0.058034  2.875402  0.984327
  N    -0.766822 -0.166969  4.870319
  N    -0.756953  4.329902  4.489356
  S    -1.614134 -0.133496  3.432180
  S    -1.489064  3.407268  3.340967
  S     1.429298  0.045332  0.683929
  S     1.509159  3.390624  0.401150
  S     0.923037  0.233024  4.792785
  S     0.836697  4.765423  4.210183
