16  
    
  C     1.014907  0.044548  2.959880
  C     0.987222  3.999505  2.768547
  C    -0.253655 -0.312038  2.461015
  C    -0.347712  3.509588  2.311212
  N     1.945376  0.119361  2.062582
  N     1.980050  3.919562  1.930720
  N    -0.339220 -0.358177  1.128329
  N    -0.307089  2.986113  1.110982
  N    -0.504156 -0.094325  4.993210
  N    -0.648137  4.161400  4.798354
  S    -1.504535 -0.497629  3.616261
  S    -1.556380  3.352896  3.575480
  S     1.195461 -0.034502  0.561281
  S     1.225751  3.278723  0.491572
  S     1.139195  0.197062  4.682597
  S     0.916893  4.439360  4.444379
