16  
    
  C     1.800274  0.601817  3.011617
  C     1.939436  4.268325  3.359085
  C     0.535768  0.239894  2.429431
  C     0.705116  4.175147  2.661027
  N     2.795725  0.834940  2.161821
  N     2.967762  4.365177  2.544140
  N     0.612527  0.119858  1.093820
  N     0.730502  4.124490  1.336164
  N     0.096186  0.345537  5.025952
  N     0.151953  3.951659  5.236789
  S    -0.781024 -0.049367  3.579902
  S    -0.585294  3.715732  3.805828
  S     2.124183  0.483653  0.666354
  S     2.312167  4.448561  1.010415
  S     1.722668  0.436295  4.763817
  S     1.809199  4.286113  5.131706
