16  
    
  C     2.064895  0.816223  3.101947
  C     2.151645  4.401029  3.013466
  C     0.796325  0.658491  2.492013
  C     0.939884  3.999155  2.376677
  N     3.123146  0.574259  2.304638
  N     3.152729  4.713076  2.224579
  N     0.826161  0.393834  1.198315
  N     1.135567  3.586673  1.152683
  N     0.337478  1.088775  4.959098
  N     0.258227  4.471511  4.818353
  S    -0.515729  0.559808  3.589915
  S    -0.415471  3.965100  3.349484
  S     2.434050  0.216458  0.822131
  S     2.744816  4.014158  0.727876
  S     1.952477  1.103629  4.790498
  S     1.888407  4.796861  4.721601
