16  
    
  C    -4.083432 -2.287648  1.766187
  C    -4.100789  1.428486  1.676893
  C    -5.444531 -2.283642  1.204281
  C    -5.315774  1.193563  0.995622
  N    -3.103406 -2.252851  0.857012
  N    -2.998893  1.248416  0.956489
  N    -5.449201 -2.421297 -0.131371
  N    -5.201094  1.149007 -0.348006
  N    -5.693589 -1.875217  3.756984
  N    -5.950484  1.561565  3.549454
  S    -6.609232 -2.290970  2.429412
  S    -6.722400  1.325211  2.117432
  S    -3.881845 -2.295168 -0.619395
  S    -3.567742  1.127985 -0.678427
  S    -4.053061 -1.851667  3.487704
  S    -4.290497  1.674983  3.387906
