16  
    
  C    -5.681737 -3.063896  1.444111
  C    -6.031082  0.865048  1.477769
  C    -6.896217 -3.510687  0.798636
  C    -7.154542  0.157286  0.951401
  N    -4.731313 -2.687976  0.595442
  N    -5.148960  1.269164  0.590216
  N    -6.836256 -3.795154 -0.504797
  N    -7.092267  0.096281 -0.361303
  N    -7.457068 -3.457350  3.281288
  N    -7.467245  0.208241  3.483057
  S    -8.159045 -3.893740  1.829462
  S    -8.306708 -0.235335  2.104259
  S    -5.343354 -3.191551 -0.943544
  S    -5.679753  0.806506 -0.875806
  S    -5.955295 -2.803575  3.136450
  S    -6.047692  1.062813  3.229130
