16  
    
  C    -4.081312 -2.280817  1.765844
  C    -4.103652  1.425034  1.676020
  C    -5.443405 -2.281584  1.203704
  C    -5.312658  1.188874  0.993900
  N    -3.109704 -2.254562  0.858548
  N    -3.006616  1.243835  0.958151
  N    -5.452279 -2.420730 -0.133496
  N    -5.199976  1.150138 -0.351788
  N    -5.688417 -1.882327  3.762253
  N    -5.954202  1.558502  3.543359
  S    -6.616215 -2.291436  2.436434
  S    -6.722527  1.324997  2.116395
  S    -3.886162 -2.300036 -0.619740
  S    -3.570776  1.129210 -0.673647
  S    -4.050979 -1.855140  3.492528
  S    -4.294976  1.674848  3.391423
