16  
    
  C    -2.163294 -1.130696  2.161886
  C    -2.707447  2.565566  2.315929
  C    -3.313848 -1.761835  1.515357
  C    -3.777319  1.843579  1.712034
  N    -1.307546 -0.636372  1.216211
  N    -1.775368  2.889638  1.418919
  N    -3.206851 -1.994417  0.184377
  N    -3.739501  1.710512  0.382105
  N    -4.042322 -1.571101  3.966299
  N    -4.395332  2.201265  4.225705
  S    -4.567665 -2.354452  2.587623
  S    -5.081852  1.558213  2.807432
  S    -1.876466 -1.181438 -0.292679
  S    -2.292368  2.398691 -0.043687
  S    -2.478533 -1.003264  3.865133
  S    -2.873951  2.871965  4.019463
