16  
    
  C    -4.718761 -2.656935  1.555873
  C    -4.645652  0.736516  1.434639
  C    -6.007411 -3.008959  0.929328
  C    -5.915820  0.667144  0.721267
  N    -3.744431 -2.659338  0.647552
  N    -3.586462  0.999433  0.647812
  N    -6.051751 -3.121478 -0.402990
  N    -5.823286  0.687486 -0.599453
  N    -6.369429 -2.551484  3.478364
  N    -6.518537  0.862559  3.141962
  S    -7.244205 -3.007292  2.160560
  S    -7.323600  0.631049  1.776510
  S    -4.404899 -2.973043 -0.835776
  S    -4.225336  0.998574 -0.878240
  S    -4.726622 -2.480676  3.283757
  S    -4.879428  1.106501  3.109937
