16  
    
  C    -4.031583 -1.736366  1.676665
  C    -3.756183  1.573285  1.837636
  C    -5.136323 -2.347815  0.998233
  C    -5.055247  1.391594  1.143145
  N    -2.917579 -1.717145  0.940931
  N    -2.780205  1.768100  0.961976
  N    -4.965247 -2.613968 -0.286749
  N    -4.995641  1.273056 -0.174418
  N    -5.808908 -2.028967  3.505721
  N    -5.490322  1.519784  3.656937
  S    -6.555161 -2.366036  2.068280
  S    -6.351442  1.234540  2.265996
  S    -3.383962 -2.215397 -0.584024
  S    -3.453476  1.539839 -0.555229
  S    -4.228716 -1.480633  3.407250
  S    -3.846292  1.746764  3.507870
