16  
    
  C    -3.969974 -1.932901  1.753915
  C    -3.693647  1.891158  1.850225
  C    -5.200146 -2.339070  1.065549
  C    -4.829381  1.349555  1.215094
  N    -2.970570 -1.696381  0.912648
  N    -2.731036  2.133529  0.981215
  N    -5.039269 -2.550769 -0.219421
  N    -4.882999  1.377315 -0.100230
  N    -5.787678 -1.980990  3.506794
  N    -5.333288  1.420421  3.697917
  S    -6.389951 -2.791911  2.171257
  S    -6.193470  1.149436  2.291297
  S    -3.479703 -2.091533 -0.583569
  S    -3.325640  1.884159 -0.505597
  S    -4.174205 -1.689132  3.460573
  S    -3.732085  1.932088  3.549173
