16  
    
  C    -4.846324 -2.369163  1.866280
  C    -5.075240  1.155192  1.805130
  C    -5.977215 -3.019422  1.215826
  C    -6.246480  0.644833  1.159457
  N    -3.841487 -2.209446  1.003978
  N    -4.055661  1.399276  0.944280
  N    -5.863935 -3.154783 -0.108570
  N    -6.045501  0.273831 -0.109415
  N    -6.434823 -3.095290  3.682466
  N    -6.904753  0.926981  3.614077
  S    -7.302542 -3.223376  2.292417
  S    -7.575361  0.245790  2.284032
  S    -4.403710 -2.570705 -0.513771
  S    -4.438606  0.672313 -0.496116
  S    -5.018086 -2.161468  3.595488
  S    -5.343194  1.419864  3.460366
