16  
    
  C     0.091618 -0.012236  2.648157
  C     0.034593  3.664771  2.611314
  C    -1.121998 -0.583950  2.116993
  C    -1.041582  2.848592  2.040406
  N     1.042670  0.188298  1.756762
  N     1.064754  3.825734  1.764531
  N    -1.109815 -0.668182  0.812106
  N    -0.974669  2.793747  0.702210
  N    -1.607143 -0.366493  4.641087
  N    -1.796589  3.379459  4.406812
  S    -2.428770 -0.903560  3.275997
  S    -2.371095  2.580112  3.091937
  S     0.375293 -0.177153  0.276002
  S     0.574002  3.172043  0.319321
  S    -0.159523  0.387416  4.335444
  S    -0.281346  4.049762  4.276477
