16  
    
  C    -2.573331 -1.909555  1.958148
  C    -3.029291  2.114054  1.791216
  C    -3.868987 -2.046045  1.285047
  C    -4.141083  1.556092  1.041038
  N    -1.504385 -1.932586  1.157909
  N    -2.062910  2.514507  1.022354
  N    -3.739710 -2.298195 -0.018052
  N    -3.975962  1.477451 -0.260555
  N    -4.329945 -1.844735  3.817994
  N    -4.811395  1.633664  3.462250
  S    -5.268985 -1.899513  2.414565
  S    -5.507909  1.158507  2.044029
  S    -2.133562 -2.183958 -0.407327
  S    -2.480714  2.213834 -0.533631
  S    -2.716575 -1.703375  3.644693
  S    -3.313673  2.321333  3.457268
