16  
    
  C    -4.703148 -2.616857  1.543670
  C    -4.746909  0.940201  1.446001
  C    -6.001414 -2.840190  1.016030
  C    -5.920815  0.617036  0.722669
  N    -3.715028 -2.498957  0.624587
  N    -3.668891  0.946859  0.639557
  N    -5.972690 -3.150628 -0.269169
  N    -5.846163  0.667459 -0.591388
  N    -6.356870 -2.557879  3.517695
  N    -6.553310  0.925380  3.249882
  S    -7.244716 -3.034960  2.173552
  S    -7.260702  0.518889  1.752668
  S    -4.442278 -3.005498 -0.771376
  S    -4.207488  0.992111 -0.923455
  S    -4.717518 -2.460000  3.252078
  S    -4.913265  1.137753  3.167865
