16  
    
  C    -2.875885 -1.947922  2.001695
  C    -2.820318  2.402631  1.957316
  C    -4.008843 -2.277945  1.203983
  C    -4.044510  2.130770  1.188194
  N    -1.774958 -1.709701  1.290444
  N    -1.714568  2.490162  1.229160
  N    -3.818100 -2.282656 -0.131791
  N    -3.814014  1.952443 -0.108636
  N    -4.761713 -2.087619  3.709149
  N    -4.601736  1.885877  3.704054
  S    -5.433994 -2.412468  2.274626
  S    -5.377943  1.590002  2.281417
  S    -2.194382 -1.922385 -0.294220
  S    -2.216200  2.131154 -0.349905
  S    -3.132173 -1.683739  3.698490
  S    -3.038554  2.382617  3.641829
