16  
    
  C     1.058650  0.259459  2.933210
  C     0.444074  3.790237  2.836067
  C    -0.110218 -0.167786  2.240152
  C    -0.574983  3.016813  2.094844
  N     2.094852  0.585848  2.185056
  N     1.545358  3.958664  2.117619
  N    -0.010665 -0.119280  0.917424
  N    -0.269743  2.929611  0.789598
  N    -0.788411 -0.265669  4.741909
  N    -1.371847  3.210906  4.552794
  S    -1.537865 -0.400365  3.276186
  S    -1.979285  2.687963  3.020543
  S     1.551165  0.409960  0.637597
  S     1.173471  3.635669  0.581570
  S     0.782442  0.216098  4.659647
  S     0.170818  3.726211  4.575914
