16  
    
  C    -0.178336 -0.305876  2.553060
  C     0.078147  3.614229  2.366208
  C    -1.442214 -0.717398  2.011553
  C    -1.241780  3.290728  1.788714
  N     0.809075 -0.189886  1.659127
  N     1.071483  3.705059  1.509484
  N    -1.499126 -0.687266  0.654288
  N    -1.157051  2.968765  0.511343
  N    -1.735720 -0.340402  4.581329
  N    -1.653776  3.517028  4.288472
  S    -2.667475 -0.673716  3.216329
  S    -2.533420  3.036254  2.929583
  S     0.075328 -0.357086  0.167796
  S     0.405271  3.345686  0.014910
  S    -0.117115 -0.098260  4.323792
  S    -0.100712  3.915863  4.072064
