16  
    
  C     2.520335  1.075973  3.253679
  C     3.003903  5.381456  3.867236
  C     1.358613  0.525115  2.629785
  C     1.713496  4.911347  3.357359
  N     3.525065  1.282384  2.365349
  N     4.035276  5.157333  3.006504
  N     1.522243  0.276593  1.338017
  N     1.742759  4.683105  2.019244
  N     0.641711  0.835542  5.041989
  N     1.230620  5.723127  5.807542
  S    -0.122892  0.345398  3.632220
  S     0.347575  5.273091  4.421117
  S     3.065497  0.762823  0.925297
  S     3.316829  4.802734  1.567795
  S     2.183985  1.338258  4.956516
  S     2.908925  5.874633  5.551550
