16  
    
  C    -1.768736 -1.028165  2.335868
  C    -1.861776  2.402758  2.521415
  C    -3.083134 -1.371150  1.796075
  C    -3.046442  1.941275  1.809273
  N    -0.741565 -1.093267  1.453946
  N    -0.807956  2.544737  1.732245
  N    -3.062460 -1.391978  0.445422
  N    -2.877447  1.774265  0.501387
  N    -3.319391 -1.185079  4.343156
  N    -3.695536  2.097683  4.299250
  S    -4.302562 -1.371809  3.067477
  S    -4.358287  1.626091  2.858605
  S    -1.440996 -1.352510 -0.024025
  S    -1.298107  2.244829  0.201138
  S    -1.743600 -0.694001  4.068359
  S    -2.106291  2.589243  4.243016
