16  
    
  C    -1.259439 -0.825059  2.120868
  C    -1.496607  3.031959  2.051029
  C    -2.487775 -1.387400  1.526349
  C    -2.604290  2.365379  1.333428
  N    -0.246251 -0.673300  1.286498
  N    -0.585081  3.479885  1.168066
  N    -2.429955 -1.452898  0.225876
  N    -2.394173  2.108104  0.016578
  N    -3.130213 -1.028920  4.011388
  N    -3.254501  2.628776  3.801481
  S    -3.838319 -1.641980  2.617581
  S    -3.885941  1.920994  2.437603
  S    -0.874560 -0.987420 -0.253639
  S    -0.943271  2.887441 -0.327510
  S    -1.454138 -0.780563  3.843281
  S    -1.806478  3.423767  3.707942
