16  
    
  C     1.920327  0.602013  3.164473
  C     1.833079  4.160516  3.151401
  C     0.601235  0.397107  2.642443
  C     0.559240  4.016954  2.555669
  N     2.916134  0.558154  2.295441
  N     2.851842  4.299387  2.326980
  N     0.564857  0.278955  1.297949
  N     0.592191  3.857601  1.261669
  N     0.323159  0.609759  5.212903
  N     0.193187  4.301566  5.010560
  S    -0.550815  0.171800  3.867132
  S    -0.686966  4.034072  3.718676
  S     2.209334  0.308669  0.824823
  S     2.260867  4.029312  0.785149
  S     2.001347  0.774199  4.837647
  S     1.823585  4.342799  4.845101
