16  
    
  C    -0.329335 -0.765140  2.685549
  C    -0.370050  3.178167  2.730052
  C    -1.615219 -0.994468  2.142504
  C    -1.560342  2.637722  2.024022
  N     0.715053 -0.762138  1.828495
  N     0.614983  3.421171  1.919440
  N    -1.587865 -1.380680  0.847469
  N    -1.379418  2.494513  0.701598
  N    -1.975601 -0.597368  4.661132
  N    -2.122252  2.951143  4.518720
  S    -2.876414 -1.281534  3.377764
  S    -2.861695  2.391640  3.180353
  S     0.047315 -1.206787  0.332895
  S     0.218091  2.925713  0.403629
  S    -0.358347 -0.299911  4.349263
  S    -0.608483  3.636281  4.388549
