16  
    
  C     1.675514  0.830236  3.250336
  C     1.979656  4.481471  3.271630
  C     0.629846  0.187279  2.518698
  C     0.742392  4.161479  2.646810
  N     2.717024  1.228799  2.561087
  N     3.042744  4.661816  2.484838
  N     0.878884 -0.009729  1.222199
  N     0.862854  3.880921  1.355393
  N    -0.342376  0.354014  4.945177
  N     0.403776  4.214371  5.180720
  S    -0.774708 -0.212136  3.456732
  S    -0.384179  3.689466  3.816763
  S     2.389681  0.670773  1.015833
  S     2.462887  4.417049  0.907542
  S     1.337470  0.835537  4.937033
  S     1.829468  4.893716  4.970209
