16  
    
  C    -0.507817 -0.577022  2.670539
  C    -0.431915  3.421539  2.722721
  C    -1.775008 -1.108156  2.164716
  C    -1.371909  2.492148  2.083834
  N     0.413618 -0.422234  1.755538
  N     0.638042  3.603439  1.946998
  N    -1.694761 -1.386937  0.882090
  N    -1.153328  2.213300  0.784823
  N    -2.185814 -0.840783  4.661314
  N    -2.264428  3.073013  4.492100
  S    -3.118317 -1.032367  3.309190
  S    -2.805281  2.306312  3.057614
  S    -0.256688 -0.893305  0.330053
  S     0.363775  2.826720  0.481694
  S    -0.565320 -0.366617  4.418585
  S    -0.723676  3.721677  4.416455
