16  
    
  C     0.890511  0.209784  2.941661
  C     0.528707  3.709899  2.936630
  C    -0.367601 -0.122345  2.272513
  C    -0.832095  3.511806  2.368005
  N     1.856019  0.383379  2.060007
  N     1.480704  3.783972  2.015463
  N    -0.224397 -0.423117  0.985623
  N    -0.828070  3.646488  1.042996
  N    -0.891765  0.149796  4.825760
  N    -1.088241  3.459767  4.943985
  S    -1.685670 -0.186938  3.398592
  S    -2.058348  3.326512  3.582284
  S     1.334669 -0.045544  0.517142
  S     0.682727  3.866135  0.550194
  S     0.728169  0.497407  4.670353
  S     0.518200  3.542316  4.711186
