16  
    
  C     0.835620 -0.127580  2.812451
  C     0.478008  3.500837  2.957454
  C    -0.470935 -0.163816  2.231360
  C    -0.784113  3.449410  2.332622
  N     1.807645  0.017689  1.915631
  N     1.485436  3.828801  2.121474
  N    -0.472075 -0.256692  0.906970
  N    -0.823783  3.786505  1.046019
  N    -0.817824 -0.224866  4.835453
  N    -1.197595  2.998597  4.855341
  S    -1.701066 -0.517170  3.449243
  S    -2.143080  3.134641  3.478156
  S     1.129335 -0.141377  0.366860
  S     0.746674  3.905516  0.623534
  S     0.782986 -0.030268  4.538898
  S     0.391403  3.370459  4.694836
