16  
    
  C    -2.189279 -0.843105  2.315365
  C    -2.123026  2.463723  1.951433
  C    -3.394921 -1.234108  1.604206
  C    -3.330335  1.971694  1.409892
  N    -1.112496 -0.781799  1.520487
  N    -1.115025  2.560625  1.098889
  N    -3.206278 -1.637970  0.309278
  N    -3.329151  1.769822  0.088252
  N    -3.890523 -1.208894  4.178583
  N    -3.831143  2.352688  3.881109
  S    -4.756217 -1.258609  2.740706
  S    -4.684596  1.939030  2.534667
  S    -1.577676 -1.329178 -0.007878
  S    -1.765577  2.058796 -0.381294
  S    -2.309934 -0.722646  4.019240
  S    -2.210211  2.562154  3.673814
