16  
    
  C     1.470495  0.988321  3.231406
  C     1.633200  4.421303  3.459402
  C     0.278137  0.462751  2.673461
  C     0.328798  4.328486  2.877299
  N     2.457300  1.219124  2.387306
  N     2.604279  4.369771  2.529889
  N     0.387360  0.210445  1.345014
  N     0.315303  3.895392  1.623612
  N    -0.256552  0.896719  5.154190
  N    -0.019519  4.643250  5.327423
  S    -1.084362  0.478621  3.686128
  S    -0.963508  4.225862  4.057871
  S     1.903180  0.745284  0.899272
  S     1.929778  4.042550  1.070516
  S     1.340983  1.292781  4.933331
  S     1.592858  4.874472  5.109820
