16  
    
  C    -4.745676 -2.368732  1.487443
  C    -4.383924  0.944094  1.812703
  C    -5.912961 -2.840670  0.818809
  C    -5.657767  0.685659  1.173646
  N    -3.691624 -2.113308  0.693702
  N    -3.436046  1.416914  1.001382
  N    -5.804914 -2.737889 -0.500133
  N    -5.555963  0.764871 -0.118172
  N    -6.415064 -2.876910  3.318148
  N    -6.151303  0.637620  3.571243
  S    -7.246179 -3.084364  1.891240
  S    -7.034231  0.433942  2.212536
  S    -4.278597 -2.264961 -0.882860
  S    -4.115777  1.305097 -0.524710
  S    -4.848327 -2.327936  3.287323
  S    -4.570757  1.099108  3.490701
