16  
    
  C    -2.516122 -1.871650  1.952484
  C    -3.085386  2.140092  1.748029
  C    -3.777780 -2.173208  1.319597
  C    -4.240874  1.647194  0.977877
  N    -1.514844 -1.992100  1.080777
  N    -2.047715  2.503908  0.956504
  N    -3.809495 -2.231922 -0.030856
  N    -4.006055  1.467417 -0.338172
  N    -4.273572 -1.719214  3.831916
  N    -5.003474  1.599554  3.494447
  S    -5.084259 -1.817044  2.400945
  S    -5.476113  0.968467  2.062125
  S    -2.237628 -2.180123 -0.427966
  S    -2.488775  1.985782 -0.624230
  S    -2.641066 -1.585331  3.681353
  S    -3.445991  2.226765  3.439911
