16  
    
  C    -4.345115 -2.398527  1.518365
  C    -4.324458  1.572240  1.981180
  C    -5.484448 -2.895978  0.785060
  C    -5.568800  1.104737  1.370967
  N    -3.275076 -2.282154  0.730719
  N    -3.365343  1.799665  1.098456
  N    -5.375707 -2.916456 -0.522130
  N    -5.477115  0.771181  0.064235
  N    -6.169556 -2.685687  3.235557
  N    -6.018137  1.206623  3.914704
  S    -6.817174 -3.324202  1.844971
  S    -6.842329  0.698865  2.559271
  S    -3.747345 -2.626545 -0.816881
  S    -3.863681  1.240730 -0.407027
  S    -4.552943 -2.286020  3.293537
  S    -4.531241  1.810725  3.688852
