16  
    
  C    -0.318816 -0.757816  2.678820
  C    -0.368922  3.167820  2.729369
  C    -1.614006 -0.994457  2.140426
  C    -1.562965  2.654916  2.022991
  N     0.724555 -0.761859  1.828398
  N     0.608656  3.417220  1.914835
  N    -1.584700 -1.378525  0.846112
  N    -1.378958  2.488255  0.704298
  N    -1.974654 -0.599363  4.660179
  N    -2.115784  2.947112  4.519289
  S    -2.872668 -1.282139  3.379456
  S    -2.862387  2.394384  3.182503
  S     0.054180 -1.210758  0.335789
  S     0.215810  2.928876  0.400884
  S    -0.354216 -0.300048  4.344333
  S    -0.604741  3.631975  4.387874
