16  
    
  C     2.262726  1.014120  3.465348
  C     2.172952  4.762830  3.158517
  C     1.015569  0.661026  2.856302
  C     0.935477  4.457106  2.520002
  N     3.279799  1.197940  2.575694
  N     3.144054  5.098503  2.323788
  N     0.995073  0.623525  1.528537
  N     1.004305  4.397946  1.198830
  N     0.455491  0.876714  5.317825
  N     0.475031  4.313534  5.129049
  S    -0.269159  0.479161  3.969782
  S    -0.285836  4.054420  3.594117
  S     2.511093  0.985247  1.048915
  S     2.482431  4.942402  0.791080
  S     2.028240  1.382704  5.212053
  S     2.082162  4.683748  4.909330
