16  
    
  C     1.042782  0.201905  3.043945
  C     0.959047  4.206799  2.569693
  C    -0.257449  0.020498  2.349969
  C    -0.098112  3.359857  2.223519
  N     2.053970  0.260601  2.181240
  N     2.050153  4.111985  1.743777
  N    -0.164596 -0.130143  1.042641
  N     0.066183  2.878054  0.983469
  N    -0.765679 -0.163731  4.860535
  N    -0.754433  4.331019  4.489060
  S    -1.610348 -0.125235  3.426694
  S    -1.490354  3.403903  3.334929
  S     1.431763  0.045570  0.691147
  S     1.512591  3.395101  0.400880
  S     0.918527  0.235926  4.794723
  S     0.831393  4.763424  4.205790
