16  
    
  C    -4.115347 -2.083936  1.787035
  C    -4.140505  1.283808  1.741163
  C    -5.436315 -2.314435  1.260601
  C    -5.416458  1.249538  1.000466
  N    -3.158956 -2.248083  0.837748
  N    -3.065732  1.238442  0.926484
  N    -5.512955 -2.378054 -0.071469
  N    -5.232038  1.130740 -0.310439
  N    -5.665139 -2.008906  3.828630
  N    -5.952380  1.525525  3.476206
  S    -6.703581 -2.288758  2.536066
  S    -6.746042  1.301762  2.034012
  S    -3.912263 -2.383681 -0.619636
  S    -3.586858  1.149320 -0.585041
  S    -4.024417 -1.920364  3.529495
  S    -4.329062  1.666642  3.443708
