16  
    
  C     2.177747  1.067316  3.448400
  C     2.058295  5.025840  3.131555
  C     0.897720  0.679439  2.854710
  C     0.886404  4.489161  2.461303
  N     3.204088  1.196592  2.631293
  N     3.115938  5.291213  2.376769
  N     0.991476  0.486889  1.554256
  N     1.056214  4.471889  1.140322
  N     0.494232  1.042977  5.398426
  N     0.356637  4.407785  4.974877
  S    -0.373854  0.488651  4.095303
  S    -0.507998  4.148548  3.536802
  S     2.572626  0.810698  1.118495
  S     2.615076  4.913715  0.823285
  S     2.202058  1.267115  5.131172
  S     1.927939  4.787445  4.854781
