16  
    
  C     3.187161  1.662401  3.285039
  C     3.063728  5.120131  3.365170
  C     1.899975  1.405448  2.633864
  C     1.863925  4.688410  2.694616
  N     4.173319  1.576321  2.405337
  N     4.152484  5.004017  2.607786
  N     1.961924  1.058648  1.320921
  N     1.992191  4.616302  1.344448
  N     1.458348  1.585466  5.169737
  N     1.281892  5.003337  5.216795
  S     0.527379  1.532440  3.796169
  S     0.462625  4.606835  3.840921
  S     3.596006  1.175082  0.960838
  S     3.676891  4.855744  1.042915
  S     3.080531  1.905736  5.022784
  S     2.913841  5.246581  5.118849
