16  
    
  C     2.940896  1.560743  3.396270
  C     2.953199  5.070783  3.240502
  C     1.683648  1.323185  2.702143
  C     1.733289  4.789094  2.569756
  N     4.044942  1.565044  2.647718
  N     4.056773  5.194461  2.511790
  N     1.836880  1.243109  1.378034
  N     1.979642  4.459502  1.291400
  N     1.217577  1.037795  5.207655
  N     1.168984  4.964208  5.037425
  S     0.437925  0.898182  3.766569
  S     0.385481  4.494042  3.627941
  S     3.417140  1.393171  1.017960
  S     3.545909  4.765135  0.978077
  S     2.804825  1.596212  5.179255
  S     2.811311  5.352316  4.943463
