16  
    
  C    -1.291516 -0.837605  2.102840
  C    -1.544561  3.136176  1.953103
  C    -2.506674 -1.422597  1.523508
  C    -2.598684  2.362533  1.346353
  N    -0.262474 -0.620717  1.217429
  N    -0.548626  3.534037  1.188490
  N    -2.430896 -1.475240  0.175457
  N    -2.389103  2.108992  0.065257
  N    -3.065923 -1.018682  3.999178
  N    -3.241853  2.658209  3.829127
  S    -3.817357 -1.611678  2.659401
  S    -3.887454  1.980780  2.431140
  S    -0.906290 -0.996545 -0.293285
  S    -0.947953  2.948184 -0.321221
  S    -1.429658 -0.767325  3.843174
  S    -1.764105  3.429148  3.714809
