16  
    
  C     1.457984  1.014920  3.315400
  C     1.436030  4.395426  3.378979
  C     0.225546  0.606370  2.752937
  C     0.103601  4.159965  2.895428
  N     2.491577  0.993560  2.477508
  N     2.383876  4.508615  2.443533
  N     0.326815  0.252915  1.492966
  N     0.056881  3.934438  1.574332
  N    -0.280610  0.803424  5.293362
  N    -0.065783  4.644333  5.432516
  S    -1.090811  0.504588  3.883437
  S    -1.055842  4.161522  4.183400
  S     1.900443  0.470068  1.052083
  S     1.568788  4.256240  1.064439
  S     1.358329  1.322409  4.983607
  S     1.545352  4.773337  5.117505
