16  
    
  C     3.014537  1.437266  3.338381
  C     3.042212  5.054747  3.326065
  C     1.749635  1.167496  2.667106
  C     1.813016  4.813119  2.569193
  N     4.112220  1.618385  2.604704
  N     4.125497  5.195412  2.546350
  N     1.909111  1.169404  1.336412
  N     2.062545  4.522076  1.291778
  N     1.207189  1.471074  5.211941
  N     1.105156  5.045130  5.100536
  S     0.381071  1.090244  3.793892
  S     0.461682  4.618004  3.627565
  S     3.492091  1.420757  0.991378
  S     3.660876  4.792394  0.979053
  S     2.891254  1.609825  5.050792
  S     2.762940  5.261156  5.053485
