16  
    
  C     2.220208  1.118455  3.479489
  C     2.003639  5.014339  3.174590
  C     0.959697  0.680973  2.931662
  C     0.895281  4.469352  2.378700
  N     3.199626  1.220195  2.575963
  N     3.116490  5.171544  2.450996
  N     0.965455  0.352416  1.634380
  N     1.030121  4.479714  1.036216
  N     0.527801  0.930400  5.507989
  N     0.224648  4.443389  4.855518
  S    -0.309946  0.645422  4.087958
  S    -0.508695  4.209452  3.409528
  S     2.594818  0.650928  1.103579
  S     2.645321  4.963720  0.850977
  S     2.220187  1.141516  5.212902
  S     1.719032  5.083698  4.941541
