16  
    
  C     1.511413  0.867294  3.420135
  C     1.237989  4.721089  3.260400
  C     0.220536  0.479371  2.891549
  C    -0.015299  4.090089  2.781607
  N     2.552069  0.830608  2.578497
  N     2.185632  4.791716  2.317454
  N     0.242589  0.131756  1.586305
  N    -0.100870  3.986533  1.469045
  N    -0.236467  0.941690  5.406319
  N    -0.164847  4.244873  5.394531
  S    -1.099936  0.456828  4.012726
  S    -1.142328  4.030188  4.011004
  S     1.811175  0.356952  1.100327
  S     1.453357  4.334849  0.856792
  S     1.337575  1.246408  5.104213
  S     1.433398  4.654622  4.984712
