16  
    
  C     1.444403  0.635192  2.965767
  C     0.939823  3.953609  2.580628
  C     0.252825  0.272643  2.249903
  C    -0.271029  3.577222  1.819752
  N     2.545622  0.565938  2.223410
  N     1.980433  4.205002  1.819539
  N     0.437457 -0.162128  1.040321
  N    -0.035226  3.311026  0.551842
  N    -0.386294  0.780487  4.626067
  N    -0.951011  3.665904  4.310676
  S    -1.150049  0.310520  3.277003
  S    -1.630330  3.187469  2.895918
  S     2.079838 -0.009391  0.757398
  S     1.537646  3.762281  0.240021
  S     1.226027  1.029704  4.575408
  S     0.655033  4.055628  4.279837
