16  
    
  C    -5.718887 -2.797306  1.208671
  C    -5.738563  0.953627  1.551372
  C    -7.021946 -3.168185  0.638393
  C    -6.916551  0.449472  0.894494
  N    -4.819824 -2.534571  0.271834
  N    -4.672808  1.015440  0.788818
  N    -6.965940 -3.400651 -0.677298
  N    -6.705532  0.271314 -0.399739
  N    -7.359479 -3.254937  3.113473
  N    -7.532790  0.641046  3.336627
  S    -8.248331 -3.679537  1.750412
  S    -8.276433  0.128115  1.911599
  S    -5.486476 -2.890532 -1.225417
  S    -5.143444  0.613408 -0.707933
  S    -5.845219 -2.549840  2.953623
  S    -5.958584  1.032120  3.279748
