16  
    
  C    -0.366716 -0.459736  2.382742
  C    -0.426652  3.659222  2.882334
  C    -1.601761 -0.860024  1.795832
  C    -1.543239  2.963137  2.219791
  N     0.583101 -0.133806  1.524378
  N     0.620018  3.712558  2.084377
  N    -1.514873 -1.181514  0.506786
  N    -1.367639  2.672179  0.939624
  N    -2.139192 -0.726315  4.313466
  N    -2.130990  3.208723  4.672348
  S    -2.999994 -1.089186  2.927621
  S    -2.916669  2.934741  3.311162
  S     0.041337 -0.703786  0.037644
  S     0.136653  3.222227  0.567946
  S    -0.484515 -0.358209  4.103430
  S    -0.584226  3.737441  4.620298
