16  
    
  C     0.913372  0.123633  2.871316
  C     0.527691  3.587044  2.955950
  C    -0.343684 -0.300114  2.278567
  C    -0.838530  3.664541  2.424850
  N     1.881760  0.351079  1.991631
  N     1.443712  3.995705  2.086280
  N    -0.277535 -0.524469  0.954613
  N    -0.866340  3.702676  1.083039
  N    -0.835239 -0.047477  4.789009
  N    -1.153033  3.270822  4.932941
  S    -1.705684 -0.200648  3.380408
  S    -2.075712  3.314146  3.561974
  S     1.228616 -0.057561  0.527323
  S     0.715348  3.887229  0.581928
  S     0.797324  0.273262  4.574899
  S     0.524390  3.366679  4.648148
