16  
    
  C     0.879823  0.018232  2.864386
  C     0.422923  3.728667  2.948413
  C    -0.396993 -0.244734  2.289546
  C    -0.859191  3.645912  2.357241
  N     1.836719  0.315091  2.000859
  N     1.455859  3.898382  2.097080
  N    -0.297800 -0.519695  1.018846
  N    -0.828018  3.676807  1.030674
  N    -0.790435 -0.105183  4.752403
  N    -1.086052  3.196411  4.927138
  S    -1.726449 -0.246039  3.350623
  S    -2.071710  3.290226  3.554821
  S     1.200367 -0.065342  0.506869
  S     0.713263  3.923620  0.621664
  S     0.851248  0.196968  4.548303
  S     0.500184  3.323903  4.669256
