16  
    
  C     0.001351 -0.677619  2.419677
  C    -0.243141  3.276121  2.627827
  C    -1.265144 -0.924906  1.823917
  C    -1.352527  2.555976  1.976841
  N     0.998872 -0.372009  1.576753
  N     0.694997  3.653068  1.774018
  N    -1.164544 -1.093840  0.491334
  N    -1.150510  2.354097  0.667544
  N    -1.684255 -0.858006  4.367722
  N    -1.909683  2.859872  4.484505
  S    -2.566123 -1.328756  2.969886
  S    -2.647560  2.257903  3.091393
  S     0.361400 -0.673541  0.104287
  S     0.389445  2.957131  0.312872
  S    -0.087717 -0.474157  4.169357
  S    -0.382412  3.489910  4.335933
