16  
    
  C    -2.821291 -1.549544  2.039363
  C    -2.344491  1.965458  2.089256
  C    -4.070391 -2.080682  1.480557
  C    -3.664320  1.913053  1.487603
  N    -1.822950 -1.398420  1.139138
  N    -1.359028  1.989168  1.207411
  N    -4.050343 -2.054669  0.119741
  N    -3.637064  1.727271  0.173583
  N    -4.369291 -1.983578  4.072775
  N    -4.073612  2.251161  3.947612
  S    -5.283755 -2.274517  2.716291
  S    -5.007595  2.032921  2.615818
  S    -2.501673 -1.747662 -0.349488
  S    -2.031369  1.859027 -0.277309
  S    -2.814823 -1.513709  3.803820
  S    -2.443673  2.348231  3.774074
