16  
    
  C     3.154708  1.591910  3.736495
  C     3.165811  4.994302  3.418273
  C     1.963368  1.123157  3.032748
  C     1.939295  4.755899  2.720048
  N     4.207459  1.814673  2.965448
  N     4.236944  5.187128  2.653417
  N     2.117383  0.891781  1.725211
  N     2.156235  4.471941  1.440105
  N     1.303123  1.658201  5.507791
  N     1.376092  5.046746  5.195843
  S     0.611535  1.152342  4.062713
  S     0.580405  4.517932  3.804876
  S     3.704334  1.317243  1.439597
  S     3.743190  4.817376  1.176568
  S     2.972408  1.768100  5.467395
  S     3.061978  5.257186  5.128117
