16  
    
  C     1.421723  0.896823  3.295016
  C     1.230923  4.287216  3.095429
  C     0.151966  0.368443  2.853385
  C    -0.039140  4.092039  2.470101
  N     2.367122  0.906361  2.392619
  N     2.209064  4.623190  2.228326
  N     0.209130 -0.063993  1.610275
  N     0.017111  4.012167  1.118466
  N    -0.272088  0.961084  5.267865
  N    -0.573241  4.176721  4.976982
  S    -1.160712  0.454337  4.020798
  S    -1.297017  3.707970  3.597083
  S     1.713688  0.249114  1.003019
  S     1.537033  4.425006  0.742305
  S     1.340320  1.173916  5.038574
  S     1.086258  4.544626  4.901002
