16  
    
  C    -1.817684 -0.867386  2.318455
  C    -1.898745  2.413264  2.577964
  C    -3.109927 -1.330158  1.831460
  C    -3.086872  2.061754  1.903407
  N    -0.830057 -0.944606  1.452089
  N    -0.827359  2.725480  1.821471
  N    -3.077223 -1.575866  0.541165
  N    -2.871023  1.853579  0.611944
  N    -3.425783 -1.234611  4.284154
  N    -3.736989  2.092477  4.392595
  S    -4.369319 -1.423952  2.957075
  S    -4.435362  1.649383  2.944009
  S    -1.534218 -1.355868  0.038567
  S    -1.295164  2.238609  0.309931
  S    -1.839570 -0.765616  4.068685
  S    -2.131188  2.490070  4.327715
