16  
    
  C    -2.497503 -1.231422  2.150009
  C    -2.793093  2.682143  2.316425
  C    -3.691610 -1.673141  1.467050
  C    -3.826389  1.921776  1.736769
  N    -1.431268 -0.866085  1.393834
  N    -1.801977  3.022558  1.488016
  N    -3.379653 -1.887163  0.161495
  N    -3.739584  1.831576  0.392027
  N    -4.133637 -1.731666  4.071198
  N    -4.383778  2.083289  4.269988
  S    -4.908884 -2.134549  2.629533
  S    -5.004965  1.354650  2.864258
  S    -1.872071 -1.238604 -0.137400
  S    -2.234502  2.473678  0.033053
  S    -2.697955 -0.937085  3.831586
  S    -2.849245  2.743931  4.085541
