16  
    
  C     2.891731  1.443309  3.393863
  C     2.921875  5.080950  3.184015
  C     1.710225  0.934453  2.762933
  C     1.711100  4.435136  2.647284
  N     3.883942  1.755155  2.558531
  N     3.891791  5.308256  2.335910
  N     1.859871  0.808201  1.454538
  N     1.804669  4.253403  1.353551
  N     1.173496  1.322577  5.357327
  N     1.237017  5.023130  5.096952
  S     0.408060  0.757067  3.931107
  S     0.451616  4.187449  3.790823
  S     3.419672  1.459757  1.072370
  S     3.329397  4.842933  0.885875
  S     2.799610  1.646046  5.167046
  S     2.838622  5.468592  4.853197
