16  
    
  C     1.596990  0.812025  3.273654
  C     2.027918  4.613272  3.279365
  C     0.561909  0.169218  2.510162
  C     0.825585  4.020891  2.685871
  N     2.657486  1.221993  2.536907
  N     3.041752  4.608396  2.431210
  N     0.866108  0.022017  1.228767
  N     0.888398  3.946096  1.348328
  N    -0.265091  0.387395  4.998966
  N     0.291278  4.261638  5.217790
  S    -0.827279 -0.131471  3.480704
  S    -0.467197  3.713783  3.844852
  S     2.398105  0.707727  0.979255
  S     2.476501  4.351894  0.903109
  S     1.286175  0.945650  4.948746
  S     1.846575  4.929773  4.933891
