16  
    
  C    -0.109649 -0.434437  2.591399
  C    -0.001949  3.222814  2.576199
  C    -1.260154 -1.107375  1.908171
  C    -1.100525  2.660170  1.886086
  N     0.906620 -0.153262  1.805662
  N     0.904399  3.737784  1.779373
  N    -1.120372 -1.129409  0.601374
  N    -0.930702  2.450268  0.575539
  N    -1.888690 -0.989453  4.360052
  N    -1.849720  2.923263  4.317102
  S    -2.628924 -1.367458  2.900966
  S    -2.490998  2.294282  2.890730
  S     0.406066 -0.532446  0.250186
  S     0.527269  3.169035  0.236539
  S    -0.278582 -0.473408  4.280045
  S    -0.337465  3.528495  4.329298
