16  
    
  C    -5.703220 -3.175114  1.619397
  C    -6.050867  0.755776  1.342508
  C    -6.923472 -3.392161  0.813569
  C    -7.244452  0.126990  0.823147
  N    -4.632653 -2.901527  0.852364
  N    -5.161066  1.243198  0.477928
  N    -6.716721 -3.645876 -0.484144
  N    -7.223003  0.149683 -0.506459
  N    -7.816072 -3.074272  3.183975
  N    -7.690488  0.259318  3.370084
  S    -8.424076 -3.439818  1.700758
  S    -8.481529 -0.220123  1.981550
  S    -5.100125 -3.288767 -0.748766
  S    -5.840566  0.983717 -1.071751
  S    -6.125417 -3.038709  3.359643
  S    -6.147351  0.870931  3.106395
