16  
    
  C     2.084699  0.738374  3.140317
  C     2.085606  4.546869  2.954825
  C     0.780574  0.525774  2.520506
  C     0.940624  3.853585  2.400393
  N     3.093254  0.612767  2.275256
  N     3.181413  4.588048  2.177253
  N     0.819395  0.234591  1.232890
  N     1.095443  3.654327  1.076183
  N     0.329934  1.034642  5.002845
  N     0.251038  4.470030  4.852743
  S    -0.519403  0.611997  3.698405
  S    -0.510875  3.954469  3.495747
  S     2.439023  0.257693  0.801970
  S     2.638099  4.006085  0.741622
  S     2.005247  1.003908  4.868531
  S     1.908557  4.769243  4.677647
