16  
    
  C     2.995237  1.572187  3.466919
  C     2.936297  5.133271  3.194628
  C     1.811386  0.917787  2.948284
  C     1.741297  4.555624  2.680867
  N     3.908046  1.841470  2.506007
  N     3.813699  5.521830  2.243567
  N     1.811500  0.691881  1.651148
  N     1.797877  4.227994  1.386674
  N     1.134962  1.470563  5.290810
  N     1.301968  4.774224  5.273699
  S     0.479555  0.660818  3.975609
  S     0.547414  4.161549  3.879296
  S     3.270924  1.232885  1.116621
  S     3.291091  4.840447  0.821357
  S     2.744583  1.807490  5.166877
  S     2.743558  5.477759  4.924261
