16  
    
  C     1.830034  0.472512  3.014265
  C     1.890014  4.142192  3.253257
  C     0.553071  0.161337  2.501987
  C     0.592081  4.084660  2.629554
  N     2.793658  0.681543  2.122868
  N     2.933519  4.330928  2.447955
  N     0.540156  0.074648  1.156095
  N     0.685568  4.016910  1.307293
  N     0.265578  0.266739  5.094538
  N     0.160728  3.971822  5.216390
  S    -0.691749  0.157410  3.704845
  S    -0.701150  3.933750  3.788777
  S     2.045382  0.423445  0.669969
  S     2.231312  4.230456  0.980008
  S     1.806745  0.644154  4.752885
  S     1.797994  4.210722  5.032181
