16  
    
  C     0.656198  0.269104  3.014773
  C     0.694719  3.894310  2.873429
  C    -0.594199  0.009289  2.433457
  C    -0.484571  3.345319  2.306315
  N     1.707336  0.345391  2.191873
  N     1.728170  3.940742  2.002700
  N    -0.587862 -0.211393  1.113384
  N    -0.514636  3.293961  0.963562
  N    -1.050350  0.272642  4.939441
  N    -0.991458  3.603324  4.797278
  S    -1.922227  0.004411  3.552448
  S    -1.865449  3.225288  3.408064
  S     1.026861  0.007353  0.702752
  S     1.044162  3.676451  0.454396
  S     0.571573  0.476697  4.761059
  S     0.627963  3.969226  4.581321
