16  
    
  C     3.183315  1.622775  3.282150
  C     3.056184  5.044101  3.368783
  C     1.903222  1.356990  2.664797
  C     1.868716  4.672995  2.671552
  N     4.160239  1.596054  2.375983
  N     4.156305  5.036791  2.624455
  N     1.960413  1.047722  1.367625
  N     1.986488  4.617656  1.350114
  N     1.426840  1.602093  5.154578
  N     1.274529  5.000883  5.196169
  S     0.515883  1.516218  3.786826
  S     0.469993  4.627840  3.817578
  S     3.592596  1.195048  0.949067
  S     3.683228  4.866778  1.051685
  S     3.052246  1.880326  5.026521
  S     2.897621  5.257013  5.102781
