16  
    
  C    -4.492767 -2.446567  1.500773
  C    -4.344659  1.437320  1.936314
  C    -5.551016 -2.988168  0.729641
  C    -5.608591  0.950935  1.410610
  N    -3.436326 -2.017459  0.805398
  N    -3.426975  1.813855  1.033385
  N    -5.313405 -2.982220 -0.553036
  N    -5.567880  0.798285  0.107094
  N    -6.270282 -2.991272  3.160713
  N    -5.928897  0.937141  3.912421
  S    -6.980552 -3.243507  1.707596
  S    -6.784166  0.566395  2.595481
  S    -3.846067 -2.263464 -0.777090
  S    -4.095927  1.370950 -0.464992
  S    -4.723432 -2.357459  3.224596
  S    -4.466933  1.630124  3.639393
