16  
    
  C     3.206548  1.626139  3.608760
  C     3.102894  5.198420  3.392746
  C     2.002938  1.138837  3.032109
  C     1.989600  4.498263  2.749571
  N     4.235488  1.638313  2.753264
  N     4.179358  5.339968  2.638906
  N     2.108894  0.831582  1.753473
  N     2.150489  4.364955  1.464356
  N     1.466664  1.457022  5.482439
  N     1.293145  4.872131  5.158330
  S     0.708699  1.029004  4.089423
  S     0.659641  4.209829  3.739798
  S     3.687822  1.094815  1.376360
  S     3.699852  4.946995  1.117128
  S     2.977940  2.061207  5.337182
  S     2.870354  5.363317  5.086451
