16  
    
  C     1.032806  0.200487  3.044145
  C     1.046476  4.171206  2.572181
  C    -0.246134  0.061052  2.361004
  C    -0.126369  3.410624  2.154750
  N     2.073053  0.277471  2.256998
  N     2.093307  4.199591  1.784570
  N    -0.126505 -0.146754  1.035127
  N     0.095445  2.887180  0.967968
  N    -0.744134 -0.132270  4.802436
  N    -0.742630  4.335804  4.486737
  S    -1.578459 -0.066365  3.392160
  S    -1.488160  3.376722  3.285250
  S     1.459503  0.044155  0.726924
  S     1.538420  3.417847  0.395871
  S     0.875073  0.254262  4.796148
  S     0.796063  4.748450  4.180655
