16  
    
  C     0.495221 -0.061959  2.797775
  C     0.228341  3.749113  2.902868
  C    -0.750778 -0.474122  2.159859
  C    -0.908621  3.156410  2.135802
  N     1.454565  0.266355  1.948807
  N     1.265465  3.907743  2.085059
  N    -0.653123 -0.758698  0.867192
  N    -0.734977  2.997120  0.827529
  N    -1.181507 -0.501552  4.655813
  N    -1.547847  3.038365  4.613985
  S    -2.054427 -0.698518  3.245262
  S    -2.234191  2.774574  3.128146
  S     0.871007 -0.211284  0.466121
  S     0.796807  3.644128  0.511074
  S     0.425741  0.041942  4.511713
  S     0.057193  3.515165  4.621605
