16  
    
  C     3.217761  1.581063  3.748402
  C     3.206713  4.974820  3.476955
  C     1.989788  1.204313  3.106349
  C     1.984332  4.598266  2.776590
  N     4.241685  1.695324  2.875279
  N     4.247788  5.142062  2.679158
  N     2.112383  1.029445  1.791860
  N     2.084308  4.551823  1.465332
  N     1.340779  1.549325  5.527723
  N     1.381661  5.150778  5.212706
  S     0.580060  1.171620  4.067240
  S     0.583352  4.617615  3.799905
  S     3.676161  1.335432  1.392926
  S     3.733266  4.791964  1.114897
  S     3.007087  1.739140  5.488642
  S     3.040670  5.234558  5.176719
