16  
    
  C    -1.282965 -0.789808  1.876524
  C    -1.484371  3.446206  2.018512
  C    -2.576905 -1.227308  1.481475
  C    -2.527402  2.642616  1.455574
  N    -0.443573 -0.517389  0.884333
  N    -0.466166  3.728346  1.181468
  N    -2.630436 -1.589364  0.235344
  N    -2.357998  2.509667  0.126640
  N    -2.698716 -1.093322  4.014428
  N    -3.043550  2.799972  3.971160
  S    -3.726072 -1.483952  2.800504
  S    -3.729237  2.212345  2.548648
  S    -1.206571 -1.075000 -0.489624
  S    -0.916250  3.153151 -0.307955
  S    -1.237346 -0.448491  3.609728
  S    -1.543298  3.566910  3.774616
