16  
    
  C    -5.411257 -2.817878  1.508470
  C    -5.521174  1.065978  1.305967
  C    -6.626572 -3.184864  0.820925
  C    -6.700649  0.580064  0.654099
  N    -4.330770 -2.679022  0.744099
  N    -4.493141  1.361481  0.537541
  N    -6.541518 -3.314151 -0.486028
  N    -6.485477  0.418286 -0.628540
  N    -7.129300 -3.050810  3.385759
  N    -7.296643  0.615749  3.185151
  S    -7.883835 -3.580081  1.968871
  S    -7.922447  0.043491  1.719851
  S    -4.910669 -2.957337 -0.824680
  S    -4.973335  0.947631 -0.999297
  S    -5.513121 -2.630618  3.210833
  S    -5.748690  1.134979  3.012969
