16  
    
  C    -2.575902 -1.273714  2.213211
  C    -2.602232  2.432246  2.298513
  C    -3.814525 -1.686007  1.541376
  C    -3.706146  1.756300  1.676690
  N    -1.610513 -1.076540  1.354410
  N    -1.604401  2.874007  1.507364
  N    -3.729909 -1.896094  0.261717
  N    -3.609983  1.808730  0.360052
  N    -4.393687 -1.692207  4.033370
  N    -4.385714  2.010071  4.182944
  S    -5.101599 -2.012429  2.557391
  S    -5.054349  1.481590  2.739212
  S    -2.160157 -1.480754 -0.142685
  S    -2.192577  2.562774 -0.060504
  S    -2.783481 -1.144128  3.937559
  S    -2.781118  2.488327  4.065690
