16  
    
  C    -0.063229 -0.411249  2.423425
  C    -0.322561  3.345599  2.718038
  C    -1.275524 -0.932141  1.826745
  C    -1.611677  3.225857  2.051168
  N     0.938855 -0.269248  1.555465
  N     0.654848  3.406336  1.821607
  N    -1.193391 -0.979810  0.489787
  N    -1.614106  2.968692  0.734139
  N    -1.887982 -0.589488  4.247862
  N    -2.092954  3.238363  4.658167
  S    -2.607895 -1.315756  2.927040
  S    -2.881747  2.884944  3.205368
  S     0.314955 -0.639307  0.035955
  S    -0.025467  3.260466  0.295071
  S    -0.337501 -0.036855  4.107464
  S    -0.465014  3.704766  4.422660
