16  
    
  C     3.290483  1.461287  3.395973
  C     3.126900  4.951065  3.501792
  C     1.957025  1.318964  2.855192
  C     1.905849  4.551861  2.920086
  N     4.307528  1.500113  2.549669
  N     4.153138  5.110529  2.672715
  N     1.995746  1.206686  1.536689
  N     1.953795  4.427099  1.615031
  N     1.682044  1.818274  5.357487
  N     1.425241  4.997113  5.411863
  S     0.721357  1.621674  4.027353
  S     0.589305  4.697246  4.036348
  S     3.567243  1.356376  1.016172
  S     3.508043  4.706960  1.182999
  S     3.359490  1.657032  5.077444
  S     3.044184  5.379830  5.150769
