16  
    
  C     2.984783  1.546083  3.445936
  C     2.990681  5.144488  3.227340
  C     1.739422  1.275455  2.744260
  C     1.784446  4.642744  2.583737
  N     3.984602  1.619765  2.566675
  N     4.017184  5.139376  2.408798
  N     1.782009  1.195277  1.425361
  N     1.871607  4.379714  1.288923
  N     1.231744  0.935294  5.241827
  N     1.137798  4.970259  5.086298
  S     0.397453  0.841381  3.761383
  S     0.442910  4.435990  3.654184
  S     3.411313  1.395629  1.066488
  S     3.472743  4.792346  0.888595
  S     2.805567  1.604224  5.188890
  S     2.761431  5.383478  4.973378
