16  
    
  C     0.668042  0.177639  3.124259
  C     0.709162  3.921340  2.962202
  C    -0.651270  0.149553  2.419825
  C    -0.530503  3.479177  2.293045
  N     1.686627  0.213858  2.259754
  N     1.712867  4.008612  2.122506
  N    -0.613295 -0.006219  1.099141
  N    -0.423869  3.287194  1.001527
  N    -1.105860  0.200788  4.990368
  N    -1.042842  3.728571  4.804796
  S    -1.965945  0.175783  3.553282
  S    -1.785523  3.176492  3.441831
  S     1.035955  0.072861  0.738408
  S     1.198324  3.464362  0.628632
  S     0.544016  0.522793  4.867397
  S     0.497004  4.290033  4.621988
