16  
    
  C    -3.986618 -1.861941  1.718501
  C    -3.600870  1.828379  1.796847
  C    -5.142449 -2.396589  1.068612
  C    -4.865760  1.436912  1.200066
  N    -2.942651 -1.698381  0.918546
  N    -2.658229  2.268482  0.950069
  N    -5.054639 -2.523298 -0.291118
  N    -4.751973  1.354770 -0.118280
  N    -5.756952 -2.200396  3.610896
  N    -5.270457  1.262287  3.752133
  S    -6.398244 -2.834131  2.239512
  S    -6.177835  1.176698  2.335755
  S    -3.492675 -2.114532 -0.619539
  S    -3.307878  1.939212 -0.581451
  S    -4.127574 -1.798130  3.461394
  S    -3.747607  2.028947  3.542443
