16  
    
  C     2.169937  1.203912  3.402419
  C     2.292806  4.508565  3.183297
  C     0.940260  0.756956  2.764229
  C     0.983762  4.337059  2.599939
  N     3.204173  1.439364  2.620391
  N     3.198043  4.983138  2.339737
  N     1.133628  0.656951  1.446628
  N     1.061258  4.465778  1.279223
  N     0.499428  0.784198  5.290740
  N     0.614729  4.258609  5.147048
  S    -0.378365  0.474145  3.921778
  S    -0.299049  3.895119  3.713851
  S     2.676501  1.073500  1.110889
  S     2.570199  4.938984  0.817378
  S     2.126125  1.240765  5.150360
  S     2.189402  4.755783  4.924616
