16  
    
  C     0.759135  0.333044  2.877788
  C     0.686701  3.523043  2.711696
  C    -0.439955 -0.250539  2.319872
  C    -0.697216  3.416947  2.175482
  N     1.725156  0.555794  1.989532
  N     1.642836  3.915076  1.835534
  N    -0.318503 -0.443208  1.009388
  N    -0.653584  3.337086  0.843626
  N    -0.863549  0.103806  4.842095
  N    -0.939640  3.272430  4.726099
  S    -1.724892 -0.326554  3.449247
  S    -1.966331  3.108315  3.358302
  S     1.137229  0.089786  0.488721
  S     0.900583  3.688184  0.329377
  S     0.700610  0.617214  4.593208
  S     0.628798  3.500347  4.408699
