16  
    
  C     1.181938  0.128179  3.016982
  C     0.617750  3.680110  3.183155
  C    -0.015074 -0.328307  2.426997
  C    -0.495098  3.276613  2.389336
  N     2.223209  0.318331  2.224915
  N     1.615865  4.177685  2.472959
  N     0.075010 -0.603817  1.118860
  N    -0.271224  3.248454  1.051315
  N    -0.581827  0.128252  4.863792
  N    -1.215140  3.068620  4.848142
  S    -1.356238 -0.395500  3.502310
  S    -1.821201  2.798544  3.279584
  S     1.652273 -0.169743  0.728180
  S     1.280396  3.856684  0.858127
  S     0.957677  0.578230  4.630689
  S     0.274214  3.702869  4.948616
