16  
    
  C    -1.989505 -1.085787  2.266423
  C    -2.293859  2.518573  1.917748
  C    -3.171517 -1.553884  1.629120
  C    -3.562035  2.043516  1.426230
  N    -0.961530 -0.798916  1.428401
  N    -1.295142  2.525271  1.047663
  N    -3.061652 -1.721108  0.299319
  N    -3.549705  1.801018  0.125873
  N    -3.890575 -1.073033  4.015191
  N    -3.953341  2.390767  3.903418
  S    -4.578261 -1.570341  2.578406
  S    -4.853238  2.015407  2.582167
  S    -1.536324 -1.263811 -0.106539
  S    -2.014185  2.113876 -0.393420
  S    -2.229911 -0.801820  4.017107
  S    -2.366716  2.796246  3.628488
