16  
    
  C    -3.434940 -2.261268  1.909989
  C    -3.806475  2.005480  1.947392
  C    -4.562286 -2.847051  1.241314
  C    -4.669212  1.030194  1.310839
  N    -2.419964 -1.993535  1.076627
  N    -2.799061  2.332290  1.137680
  N    -4.223995 -3.318610  0.029616
  N    -4.391262  0.780098  0.026069
  N    -5.268785 -2.471712  3.697818
  N    -5.465641  1.341394  3.684758
  S    -5.935069 -3.002862  2.274187
  S    -6.000665  0.484393  2.333065
  S    -2.715101 -2.729518 -0.360675
  S    -3.029523  1.664476 -0.327304
  S    -3.745734 -1.881669  3.590470
  S    -4.201033  2.444024  3.567901
