16  
    
  C    -1.505385 -1.134656  2.293888
  C    -1.871267  2.566859  2.149711
  C    -2.840226 -1.299843  1.687502
  C    -3.021249  2.021321  1.520858
  N    -0.531182 -0.957904  1.391478
  N    -0.832202  2.602167  1.318052
  N    -2.797621 -1.609683  0.359155
  N    -2.953250  1.719839  0.223806
  N    -3.244792 -0.916257  4.241752
  N    -3.499832  2.154430  4.065473
  S    -4.157740 -1.234685  2.886820
  S    -4.331586  1.846069  2.680107
  S    -1.204836 -1.409468 -0.104341
  S    -1.366853  2.167615 -0.177350
  S    -1.556252 -0.932983  3.989613
  S    -1.898916  2.574026  3.872373
