16  
    
  C    -2.424015 -1.105048  2.171506
  C    -2.720124  2.652669  2.358794
  C    -3.483486 -1.839170  1.460667
  C    -3.911290  2.030439  1.728730
  N    -1.426816 -0.809778  1.396181
  N    -1.766620  3.021953  1.502638
  N    -3.392352 -1.866761  0.145403
  N    -3.694116  1.780756  0.428160
  N    -4.106652 -1.640302  3.972274
  N    -4.382305  2.121608  4.224340
  S    -4.796824 -2.216137  2.596261
  S    -5.050401  1.361371  2.919735
  S    -1.873242 -1.220576 -0.149758
  S    -2.244435  2.434472 -0.022750
  S    -2.590061 -0.929245  3.867135
  S    -2.883330  2.783586  4.045410
