16  
    
  C    -1.476025 -1.214781  2.725708
  C    -1.696217  2.672862  2.375629
  C    -2.643277 -1.568398  1.965516
  C    -2.785058  2.079314  1.669881
  N    -0.415405 -0.791662  1.993787
  N    -0.608129  2.716425  1.635910
  N    -2.382119 -1.747808  0.658666
  N    -2.612743  1.842523  0.366912
  N    -3.469125 -1.420917  4.347540
  N    -3.545044  2.409333  4.180581
  S    -4.083815 -1.880799  2.827555
  S    -4.266358  2.159812  2.686770
  S    -0.835142 -1.158123  0.419524
  S    -1.048013  2.294974  0.104796
  S    -1.819627 -1.249214  4.407400
  S    -1.923150  2.831803  4.121200
