16  
    
  C     0.824617 -0.078090  2.808910
  C     0.511410  3.464210  2.953151
  C    -0.481489 -0.196690  2.222228
  C    -0.857864  3.548793  2.372351
  N     1.811893  0.062225  1.910477
  N     1.485249  3.883435  2.123009
  N    -0.436170 -0.294796  0.890787
  N    -0.793625  3.766619  1.044276
  N    -0.823168 -0.213136  4.842931
  N    -1.168025  2.999193  4.888956
  S    -1.679870 -0.463175  3.454324
  S    -2.151215  3.164353  3.495289
  S     1.150275 -0.132559  0.371037
  S     0.749905  3.908011  0.618687
  S     0.789364 -0.007777  4.562568
  S     0.414811  3.363105  4.678360
