16  
    
  C     1.475516  0.974574  3.264584
  C     1.661794  4.439798  3.445539
  C     0.283191  0.438563  2.657963
  C     0.315665  4.258996  2.890750
  N     2.422706  1.189069  2.368887
  N     2.608136  4.336592  2.501476
  N     0.399415  0.192323  1.368490
  N     0.306053  3.951760  1.597672
  N    -0.290089  0.865191  5.187222
  N    -0.038755  4.667342  5.383884
  S    -1.092101  0.511559  3.697249
  S    -1.019776  4.209869  4.085247
  S     1.899028  0.724649  0.891339
  S     1.862255  4.060261  1.080202
  S     1.358175  1.319891  4.966816
  S     1.578100  4.873287  5.115757
