16  
    
  C    -5.211216 -2.459358  1.778421
  C    -5.308986  1.212636  1.476593
  C    -6.493072 -2.748607  1.144015
  C    -6.646790  0.963527  0.885298
  N    -4.204948 -2.335489  0.876643
  N    -4.245913  1.185267  0.661574
  N    -6.385281 -2.956981 -0.170631
  N    -6.594452  0.649616 -0.414035
  N    -6.993354 -2.368003  3.634907
  N    -7.072405  1.110703  3.346305
  S    -7.850174 -2.738373  2.286615
  S    -7.986731  0.854331  1.983919
  S    -4.823224 -2.641037 -0.601604
  S    -4.957658  0.786132 -0.848916
  S    -5.402012 -1.921195  3.422534
  S    -5.479307  1.332194  3.197885
