16  
    
  C    -1.143851 -0.594789  2.290576
  C    -1.200161  3.069267  2.297094
  C    -2.309722 -1.156633  1.656869
  C    -2.538098  2.861803  1.717978
  N    -0.102696 -0.333085  1.536853
  N    -0.149800  2.938419  1.472785
  N    -2.243480 -1.046845  0.327796
  N    -2.434555  2.690562  0.403051
  N    -2.910236 -0.824458  4.186537
  N    -2.884352  3.192690  4.205386
  S    -3.600868 -1.410236  2.750486
  S    -3.802651  2.831291  2.882490
  S    -0.657203 -0.498933 -0.056707
  S    -0.825279  2.790270 -0.035519
  S    -1.370577 -0.223348  4.028190
  S    -1.259777  3.254584  4.014604
