16  
    
  C    -1.612386 -1.163517  2.106846
  C    -1.750352  2.404740  1.925765
  C    -2.935862 -1.278373  1.511811
  C    -2.988169  2.014674  1.268854
  N    -0.643036 -1.026816  1.179650
  N    -0.683765  2.469791  1.134295
  N    -2.927661 -1.551865  0.183425
  N    -2.824088  1.814318 -0.016416
  N    -3.371557 -1.014282  4.070064
  N    -3.572603  2.123691  3.780645
  S    -4.242355 -1.180196  2.658993
  S    -4.342820  1.929683  2.301361
  S    -1.353132 -1.401734 -0.262165
  S    -1.245254  2.179833 -0.379444
  S    -1.737280 -0.934234  3.823830
  S    -1.899685  2.362774  3.694142
