16  
    
  C    -1.892824 -0.997109  2.372666
  C    -1.843982  2.313768  2.651596
  C    -3.097208 -1.598266  1.761596
  C    -3.027613  1.974809  1.950210
  N    -0.868435 -0.879156  1.568657
  N    -0.906527  2.791231  1.817062
  N    -3.000230 -1.747184  0.445193
  N    -2.951778  1.852058  0.615827
  N    -3.586578 -1.137885  4.290111
  N    -3.731932  2.080765  4.397292
  S    -4.404835 -1.533379  2.940277
  S    -4.514151  1.916397  2.929161
  S    -1.420715 -1.234366  0.028115
  S    -1.395679  2.408346  0.287895
  S    -1.974343 -0.887164  4.125748
  S    -2.084976  2.412254  4.338861
