16  
    
  C    -4.112864 -2.044080  1.772896
  C    -4.149426  1.246657  1.748148
  C    -5.490148 -2.295568  1.313435
  C    -5.394897  1.280599  1.031353
  N    -3.164604 -2.206497  0.846156
  N    -3.079125  1.253337  0.975511
  N    -5.525126 -2.372978 -0.021769
  N    -5.267704  1.123512 -0.283563
  N    -5.681772 -2.064067  3.860070
  N    -5.965821  1.520644  3.471338
  S    -6.705412 -2.285629  2.562980
  S    -6.778882  1.288346  1.998193
  S    -3.923049 -2.415103 -0.605334
  S    -3.594951  1.153971 -0.568151
  S    -4.024395 -1.948942  3.528867
  S    -4.324323  1.652551  3.450185
