16  
    
  C     1.387582  0.649827  3.097696
  C     1.021719  4.211445  2.784234
  C     0.157346  0.249896  2.482631
  C    -0.098691  3.725667  2.029817
  N     2.381912  0.869139  2.210720
  N     2.065759  4.574572  2.068419
  N     0.151780  0.114269  1.154987
  N     0.118613  3.629263  0.731089
  N    -0.400919  0.708072  4.946037
  N    -0.884096  3.860394  4.413433
  S    -1.119204  0.152465  3.580729
  S    -1.451083  3.291709  2.988767
  S     1.702436  0.518036  0.731091
  S     1.697853  4.174057  0.480957
  S     1.266801  0.944981  4.806762
  S     0.653421  4.361999  4.467825
