16  
    
  C    -2.161199 -1.142563  2.165549
  C    -2.714768  2.591674  2.313509
  C    -3.323598 -1.751312  1.516146
  C    -3.793363  1.835341  1.725345
  N    -1.321215 -0.638647  1.222207
  N    -1.767215  2.889483  1.413052
  N    -3.215909 -1.983575  0.195193
  N    -3.738862  1.719043  0.381691
  N    -4.051166 -1.563953  3.971273
  N    -4.397436  2.195665  4.236473
  S    -4.582256 -2.353212  2.579614
  S    -5.076488  1.543634  2.813411
  S    -1.880283 -1.186438 -0.284055
  S    -2.289738  2.403050 -0.036101
  S    -2.487102 -0.997704  3.870272
  S    -2.877238  2.866625  4.023381
