16  
    
  C    -5.335278 -2.625596  1.333440
  C    -5.440360  1.066057  1.305883
  C    -6.617220 -3.019132  0.771382
  C    -6.572156  0.490829  0.602471
  N    -4.387926 -2.289253  0.467359
  N    -4.435022  1.408462  0.499923
  N    -6.586716 -3.271495 -0.529847
  N    -6.381351  0.474569 -0.701026
  N    -6.878456 -3.109532  3.319592
  N    -7.149024  0.462368  3.058281
  S    -7.767407 -3.452604  1.995232
  S    -7.937831  0.129231  1.640750
  S    -5.012136 -2.840325 -1.006704
  S    -4.927604  1.140543 -1.056895
  S    -5.360712 -2.489439  3.030372
  S    -5.673008  1.193049  2.990528
