16  
    
  C    -5.386299 -2.808008  1.538410
  C    -5.538985  1.075498  1.329334
  C    -6.674384 -3.025277  0.844501
  C    -6.663774  0.487205  0.630317
  N    -4.358318 -2.698396  0.723116
  N    -4.461171  1.338808  0.575053
  N    -6.523456 -3.266967 -0.469648
  N    -6.565758  0.381555 -0.703388
  N    -7.146355 -3.152481  3.392034
  N    -7.252678  0.553275  3.172022
  S    -7.961820 -3.552136  1.950232
  S    -7.957914  0.068593  1.763128
  S    -4.894004 -3.000341 -0.832685
  S    -4.976767  0.919471 -1.009208
  S    -5.578794 -2.585299  3.283987
  S    -5.737602  1.172614  3.067375
