16  
    
  C     2.552592  1.118794  3.236862
  C     2.565205  5.041073  3.591841
  C     1.390320  0.675772  2.477222
  C     1.449342  4.258555  3.086689
  N     3.670586  1.177376  2.534121
  N     3.504147  5.259013  2.710559
  N     1.568882  0.492030  1.173808
  N     1.468041  4.054084  1.778604
  N     0.678357  1.132065  4.966259
  N     0.928281  4.831407  5.536027
  S     0.087231  0.391953  3.589683
  S     0.142696  4.230917  4.247383
  S     3.199803  0.803496  0.922460
  S     2.962717  4.633224  1.244478
  S     2.321284  1.329806  4.931489
  S     2.493983  5.340829  5.270446
