16  
    
  C    -0.153081 -0.352385  2.547186
  C     0.094236  3.570628  2.394404
  C    -1.431312 -0.704146  2.002960
  C    -1.247251  3.311256  1.799218
  N     0.820436 -0.211030  1.660513
  N     1.063035  3.707602  1.491576
  N    -1.491721 -0.684344  0.655649
  N    -1.156396  3.002485  0.494325
  N    -1.744573 -0.348189  4.570827
  N    -1.658938  3.515627  4.286747
  S    -2.684028 -0.673708  3.210452
  S    -2.529329  3.038143  2.931748
  S     0.069388 -0.354768  0.193372
  S     0.417094  3.357390  0.009101
  S    -0.123551 -0.096910  4.318374
  S    -0.091293  3.901907  4.051458
