16  
    
  C    -0.348883 -0.404723  2.582085
  C    -0.361285  3.250742  2.584787
  C    -1.502152 -0.739325  1.863703
  C    -1.624593  2.808037  1.932966
  N     0.717786 -0.091133  1.828295
  N     0.637471  3.332112  1.754701
  N    -1.224514 -0.981382  0.594880
  N    -1.512760  2.537038  0.627588
  N    -2.255646 -0.566885  4.337534
  N    -2.066570  3.230048  4.447528
  S    -2.981596 -1.001634  2.888942
  S    -2.889213  2.646762  3.151209
  S     0.288270 -0.498109  0.288715
  S     0.070663  2.957965  0.229218
  S    -0.626343 -0.069944  4.250241
  S    -0.479724  3.620105  4.281661
