16  
    
  C     2.981368  1.590423  3.476036
  C     2.947476  5.206135  3.192036
  C     1.826646  0.949450  2.950130
  C     1.798975  4.518223  2.695234
  N     3.876843  1.805042  2.484041
  N     3.813756  5.546207  2.254973
  N     1.797991  0.670611  1.670030
  N     1.782154  4.277443  1.396530
  N     1.141175  1.449152  5.349058
  N     1.321368  4.723161  5.284896
  S     0.484018  0.643344  3.998001
  S     0.530505  4.161970  3.876177
  S     3.281165  1.200067  1.120130
  S     3.280688  4.837989  0.825848
  S     2.729212  1.852401  5.165010
  S     2.740367  5.484769  4.943587
