16  
    
  C     1.588056  0.812142  3.277321
  C     2.030794  4.623604  3.281580
  C     0.553255  0.170858  2.511558
  C     0.841986  4.000997  2.692247
  N     2.648413  1.215476  2.530979
  N     3.051331  4.612239  2.416194
  N     0.867357  0.031795  1.219767
  N     0.896882  3.957185  1.336472
  N    -0.243833  0.392503  4.997208
  N     0.275501  4.270969  5.217539
  S    -0.841150 -0.119550  3.486634
  S    -0.483681  3.720231  3.850064
  S     2.393906  0.713332  0.973489
  S     2.471911  4.337270  0.907389
  S     1.277566  0.965349  4.955999
  S     1.848091  4.934154  4.933681
