16  
    
  C    -2.848188 -1.769974  2.020635
  C    -2.675038  2.244875  2.032264
  C    -4.032961 -2.131210  1.270070
  C    -3.906295  1.879253  1.296076
  N    -1.787187 -1.509031  1.263061
  N    -1.647140  2.242873  1.194745
  N    -3.816473 -2.391165 -0.014562
  N    -3.817297  1.923404 -0.022083
  N    -4.792794 -2.227404  3.673100
  N    -4.533605  1.915833  3.829586
  S    -5.485340 -2.534742  2.207771
  S    -5.286712  1.806650  2.316027
  S    -2.290322 -1.869028 -0.316147
  S    -2.175111  2.108700 -0.370020
  S    -3.177284 -1.685495  3.699684
  S    -2.926057  2.454573  3.747361
