16  
    
  C    -3.430531 -2.265254  1.917109
  C    -3.812567  2.009430  1.943526
  C    -4.558979 -2.845467  1.238165
  C    -4.663302  1.028048  1.309679
  N    -2.422755 -1.991475  1.073548
  N    -2.795250  2.332776  1.145280
  N    -4.227883 -3.323411  0.032338
  N    -4.397786  0.776461  0.021333
  N    -5.272600 -2.472878  3.700148
  N    -5.458332  1.338939  3.676589
  S    -5.937772 -3.009574  2.274155
  S    -5.998298  0.484399  2.332307
  S    -2.717932 -2.735612 -0.358170
  S    -3.034004  1.660630 -0.325729
  S    -3.750416 -1.891228  3.587673
  S    -4.197397  2.447110  3.568518
