16  
    
  C    -4.111137 -2.108006  1.786594
  C    -4.134812  1.304949  1.734530
  C    -5.420949 -2.312188  1.242519
  C    -5.407259  1.233740  0.989648
  N    -3.158162 -2.255719  0.841591
  N    -3.061514  1.233799  0.922370
  N    -5.507176 -2.383668 -0.087759
  N    -5.220627  1.135100 -0.320471
  N    -5.660571 -1.990516  3.819733
  N    -5.953133  1.528162  3.480364
  S    -6.698575 -2.289864  2.525239
  S    -6.738378  1.306405  2.049217
  S    -3.910741 -2.372456 -0.621550
  S    -3.586226  1.147077 -0.594248
  S    -4.026616 -1.910850  3.528237
  S    -4.328894  1.669438  3.438970
