16  
    
  C    -2.721247 -1.601322  1.944302
  C    -3.154173  1.924818  1.781776
  C    -3.989588 -1.948153  1.338826
  C    -4.253489  1.291701  1.037533
  N    -1.696679 -1.482480  1.103205
  N    -2.057659  2.202041  1.091930
  N    -3.908245 -2.106789  0.032370
  N    -3.967117  1.129859 -0.265632
  N    -4.426598 -1.677429  3.895228
  N    -5.161174  1.615453  3.526990
  S    -5.307976 -1.905075  2.475020
  S    -5.693904  1.164262  2.015460
  S    -2.331106 -1.908597 -0.382578
  S    -2.484040  1.776824 -0.511733
  S    -2.805248 -1.375787  3.724545
  S    -3.549778  2.158483  3.486358
