16  
    
  C    -0.103723 -0.502724  2.778122
  C     0.188173  3.313744  2.390385
  C    -1.310626 -0.830297  2.039953
  C    -1.016573  2.919154  1.693622
  N     0.945735 -0.157038  2.065455
  N     1.176981  3.674429  1.597644
  N    -1.067059 -1.009014  0.768437
  N    -0.983482  2.987038  0.368149
  N    -2.138477 -0.651516  4.375281
  N    -1.585570  2.847503  4.253395
  S    -2.712691 -1.233539  2.936707
  S    -2.332469  2.577954  2.753082
  S     0.455266 -0.459251  0.460354
  S     0.583710  3.367181  0.013934
  S    -0.529925 -0.264607  4.392441
  S    -0.025220  3.472026  4.167267
