16  
    
  C    -3.920333 -2.043192  1.727340
  C    -3.606515  2.025823  1.751619
  C    -5.145339 -2.455059  1.061398
  C    -4.788519  1.533847  1.104230
  N    -2.951383 -1.741936  0.892850
  N    -2.671524  2.306105  0.871876
  N    -5.073227 -2.597155 -0.268808
  N    -4.733420  1.380207 -0.232040
  N    -5.583707 -2.631308  3.568967
  N    -5.136628  1.231940  3.684367
  S    -6.437965 -2.739512  2.179762
  S    -6.029183  1.094404  2.248809
  S    -3.568487 -2.094246 -0.610097
  S    -3.222378  1.878366 -0.620179
  S    -3.982263 -2.076273  3.429389
  S    -3.694468  2.154098  3.467859
