16  
    
  C    -0.645312 -0.421395  2.678033
  C    -0.400782  3.369529  2.665901
  C    -1.913624 -0.764281  2.047714
  C    -1.371047  2.535689  2.062997
  N     0.333256 -0.212867  1.769565
  N     0.693671  3.619136  1.962905
  N    -1.750730 -1.095088  0.750474
  N    -1.083017  2.102060  0.853407
  N    -2.234349 -0.852094  4.636324
  N    -2.190784  3.076546  4.442814
  S    -3.105458 -0.997772  3.235574
  S    -2.834777  2.295389  3.131539
  S    -0.192774 -0.793855  0.341498
  S     0.374943  2.809201  0.503100
  S    -0.685995 -0.275549  4.359704
  S    -0.727720  3.726188  4.307690
