16  
    
  C    -3.139551 -1.742649  1.814566
  C    -3.559688  1.590187  2.071027
  C    -4.341701 -2.385153  1.305224
  C    -4.733905  1.139038  1.353472
  N    -2.070767 -1.632418  1.018716
  N    -2.447516  1.757771  1.377325
  N    -4.246599 -2.652227  0.013817
  N    -4.433114  0.767532  0.113384
  N    -4.766468 -2.037419  3.796913
  N    -5.496774  1.428633  3.882921
  S    -5.550418 -2.656356  2.475121
  S    -6.118519  1.018589  2.384155
  S    -2.706064 -2.238626 -0.436490
  S    -2.819651  1.208378 -0.177034
  S    -3.237309 -1.460788  3.522070
  S    -3.898564  1.924914  3.767964
