16  
    
  C     1.559191  0.968393  3.248105
  C     1.891124  4.675637  3.262395
  C     0.405743  0.497588  2.573462
  C     0.709425  3.987998  2.731558
  N     2.625834  1.138978  2.448959
  N     2.946242  4.638997  2.420787
  N     0.568294  0.364463  1.252001
  N     0.854996  3.695915  1.407473
  N    -0.239924  0.575901  5.026710
  N     0.107564  4.525417  5.223050
  S    -0.911642  0.097097  3.552879
  S    -0.598661  4.080384  3.780667
  S     2.114672  0.758769  0.933040
  S     2.331110  4.151778  1.006164
  S     1.235375  1.216710  4.896966
  S     1.783931  4.875557  5.041869
