16  
    
  C    -2.712803 -1.820129  2.017258
  C    -2.917621  2.345325  1.900258
  C    -3.926586 -2.167990  1.319693
  C    -4.053024  1.941041  1.148875
  N    -1.633710 -1.905097  1.233011
  N    -1.873602  2.664466  1.139324
  N    -3.807293 -2.215684  0.000523
  N    -3.874607  1.742271 -0.176234
  N    -4.678342 -1.916522  3.725933
  N    -4.739075  1.837897  3.640782
  S    -5.410136 -2.293371  2.249009
  S    -5.410742  1.478316  2.142099
  S    -2.177330 -2.033537 -0.330178
  S    -2.324160  2.217729 -0.422457
  S    -3.021299 -1.729217  3.707689
  S    -3.135895  2.336375  3.637238
