16  
    
  C    -2.608874 -1.247370  2.179331
  C    -2.582253  2.389536  2.311686
  C    -3.832495 -1.734369  1.549593
  C    -3.733703  1.772227  1.643073
  N    -1.588626 -1.112488  1.361756
  N    -1.620274  2.859035  1.518741
  N    -3.744851 -1.901994  0.257120
  N    -3.602699  1.811843  0.338159
  N    -4.407787 -1.662311  4.032042
  N    -4.362500  2.004457  4.159591
  S    -5.121749 -2.014071  2.584202
  S    -5.044042  1.506531  2.728963
  S    -2.177599 -1.487796 -0.144177
  S    -2.177615  2.540520 -0.062844
  S    -2.783585 -1.175463  3.926012
  S    -2.770880  2.471082  4.056111
