16  
    
  C     0.805361 -0.096628  2.786028
  C     0.420053  3.519840  2.974329
  C    -0.529011 -0.330734  2.224360
  C    -0.844566  3.449462  2.316743
  N     1.817467 -0.154462  1.895842
  N     1.437871  3.657053  2.122795
  N    -0.552806 -0.183936  0.896521
  N    -0.841911  3.602182  1.005563
  N    -0.847852 -0.284368  4.723560
  N    -1.277384  3.055613  4.832789
  S    -1.776405 -0.619807  3.383066
  S    -2.116421  3.016096  3.371023
  S     1.020981 -0.131234  0.461323
  S     0.770254  3.940808  0.616180
  S     0.818347 -0.060204  4.521246
  S     0.341754  3.386735  4.715863
