16  
    
  C     0.972090  0.231488  2.941209
  C     0.550024  3.516832  2.787512
  C    -0.247624 -0.124162  2.212262
  C    -0.664496  3.103979  2.063865
  N     1.941254  0.615538  2.108057
  N     1.588433  3.904843  2.026746
  N    -0.094028 -0.143817  0.874843
  N    -0.516891  3.206102  0.725546
  N    -0.754744 -0.170814  4.696573
  N    -1.277884  3.269423  4.574524
  S    -1.537576 -0.531039  3.257564
  S    -1.999061  2.787544  3.143749
  S     1.419827  0.374958  0.538390
  S     1.089503  3.565627  0.473983
  S     0.810983  0.322074  4.664539
  S     0.297253  3.667427  4.478750
