16  
    
  C     2.042891  0.821839  3.054541
  C     2.198709  4.499038  3.016780
  C     0.744963  0.618916  2.396391
  C     1.022155  3.987550  2.372590
  N     3.070437  0.623277  2.270762
  N     3.354651  4.505448  2.329771
  N     0.833169  0.367366  1.095470
  N     1.249077  3.692790  1.112130
  N     0.307059  0.980505  4.877151
  N     0.218207  4.352768  4.797341
  S    -0.566631  0.637142  3.507737
  S    -0.410191  3.961518  3.254041
  S     2.512157  0.286102  0.722670
  S     2.896063  4.055236  0.759746
  S     1.851180  1.304815  4.746455
  S     1.859216  4.828279  4.706414
