16  
    
  C    -5.068408 -2.441043  1.877089
  C    -5.437332  1.136121  1.607654
  C    -6.311695 -2.849258  1.327561
  C    -6.717424  0.881124  1.011377
  N    -4.014603 -2.500674  1.031506
  N    -4.395201  1.059441  0.768023
  N    -6.206844 -3.163467  0.033648
  N    -6.587028  0.709879 -0.318513
  N    -6.884358 -2.168400  3.772875
  N    -7.181629  1.089019  3.507991
  S    -7.719267 -2.749025  2.411368
  S    -8.058839  0.866716  2.035866
  S    -4.633603 -3.076176 -0.427854
  S    -5.010387  0.858123 -0.725738
  S    -5.217098 -2.185403  3.624314
  S    -5.515224  1.282337  3.335358
