16  
    
  C    -1.812413 -0.856704  2.315583
  C    -1.914349  2.428783  2.582922
  C    -3.087561 -1.363807  1.832081
  C    -3.103214  2.064985  1.912092
  N    -0.822956 -0.921393  1.458769
  N    -0.826219  2.724212  1.818373
  N    -3.083254 -1.583320  0.544779
  N    -2.878800  1.836412  0.620541
  N    -3.441987 -1.227031  4.266938
  N    -3.746009  2.093823  4.401980
  S    -4.390471 -1.428448  2.951749
  S    -4.429163  1.665942  2.946502
  S    -1.537533 -1.354623  0.037716
  S    -1.294691  2.251546  0.313766
  S    -1.845258 -0.776393  4.069790
  S    -2.133434  2.476023  4.336870
