16  
    
  C    -4.002444 -2.126966  1.719676
  C    -4.020627  1.474840  1.706443
  C    -5.327401 -2.415504  1.170594
  C    -5.278161  1.327428  1.018724
  N    -2.954713 -2.117990  0.842180
  N    -2.991562  1.441006  0.862406
  N    -5.280036 -2.404413 -0.156298
  N    -5.182328  1.104490 -0.281102
  N    -5.714883 -1.783320  3.606864
  N    -5.768725  1.598588  3.468499
  S    -6.646784 -2.280826  2.292679
  S    -6.655187  1.332078  2.099632
  S    -3.720676 -2.246414 -0.630494
  S    -3.573559  1.143009 -0.613589
  S    -4.088779 -1.765194  3.420831
  S    -4.100737  1.670861  3.397954
