16  
    
  C     2.597115  1.113743  3.359527
  C     2.923317  5.217749  3.686996
  C     1.430010  0.676506  2.651663
  C     1.590162  5.224032  3.094441
  N     3.670292  1.423357  2.627743
  N     3.921084  4.931190  2.855676
  N     1.648072  0.681070  1.328147
  N     1.594178  4.738723  1.831993
  N     0.675533  0.819763  5.147806
  N     1.359726  5.488133  5.667737
  S     0.085223  0.203870  3.713939
  S     0.378779  5.389159  4.362643
  S     3.213718  1.154237  1.083109
  S     3.176537  4.667424  1.367713
  S     2.286901  1.149189  5.072180
  S     2.978468  5.466631  5.409924
