16  
    
  C    -4.223233 -2.071303  1.709760
  C    -4.243056  1.663045  1.885949
  C    -5.464991 -2.457282  1.102536
  C    -5.381744  1.000959  1.299695
  N    -3.156395 -2.199172  0.908906
  N    -3.191729  1.653269  1.093937
  N    -5.364324 -2.771670 -0.156724
  N    -5.244362  0.608053  0.032875
  N    -5.994151 -1.945428  3.542260
  N    -5.999670  1.584320  3.786754
  S    -6.753840 -2.579827  2.223761
  S    -6.760974  0.976054  2.445527
  S    -3.795423 -2.655025 -0.551841
  S    -3.659797  0.979616 -0.426853
  S    -4.365399 -1.682582  3.332720
  S    -4.493819  2.186929  3.530614
