16  
    
  C    -1.348859 -0.643270  1.806704
  C    -1.178084  3.254845  2.114348
  C    -2.665147 -1.128422  1.521648
  C    -2.445952  2.720098  1.526676
  N    -0.458705 -0.574962  0.819811
  N    -0.315028  3.674666  1.209793
  N    -2.772339 -1.399059  0.211183
  N    -2.423979  2.615991  0.218325
  N    -2.770958 -0.589278  3.983186
  N    -2.813304  2.906944  4.088310
  S    -3.689782 -1.450744  2.853009
  S    -3.564436  2.256230  2.749455
  S    -1.332452 -1.062347 -0.520920
  S    -0.956237  3.268674 -0.288261
  S    -1.217902 -0.198022  3.462206
  S    -1.329649  3.630385  3.844637
