16  
    
  C    -5.287347 -2.326579  1.709286
  C    -5.346726  1.305653  1.441330
  C    -6.522357 -2.640284  1.080510
  C    -6.580147  0.907558  0.869362
  N    -4.266143 -2.262336  0.899448
  N    -4.329041  1.190546  0.602240
  N    -6.427191 -2.962754 -0.212604
  N    -6.502997  0.702912 -0.426384
  N    -6.989065 -2.466281  3.628402
  N    -7.081201  1.098910  3.354340
  S    -7.801726 -2.750169  2.202383
  S    -7.937295  0.797890  1.973892
  S    -4.876271 -2.607285 -0.621740
  S    -4.935803  0.745449 -0.838438
  S    -5.457821 -1.931463  3.412883
  S    -5.487950  1.317238  3.138955
