16  
    
  C    -1.351548 -0.764334  1.959029
  C    -1.454320  3.307929  1.994584
  C    -2.511056 -1.435346  1.481856
  C    -2.595216  2.607663  1.400535
  N    -0.426446 -0.547057  1.074899
  N    -0.536731  3.830109  1.133791
  N    -2.567440 -1.618381  0.195516
  N    -2.346564  2.293646  0.119173
  N    -2.840262 -1.124201  4.058638
  N    -3.126159  2.754177  3.878325
  S    -3.767418 -1.503920  2.703365
  S    -3.826982  2.169993  2.503880
  S    -1.085228 -1.023934 -0.386232
  S    -0.914881  3.064858 -0.312577
  S    -1.237212 -0.598267  3.688982
  S    -1.650972  3.468254  3.744637
