16  
    
  C    -1.959595 -1.114330  2.193029
  C    -1.818056  2.358893  2.052870
  C    -3.228540 -1.280307  1.568771
  C    -3.021046  1.953303  1.290399
  N    -0.961242 -0.930522  1.323120
  N    -0.723894  2.322719  1.294257
  N    -3.189256 -1.442129  0.221886
  N    -2.836119  1.844260 -0.033519
  N    -3.632694 -0.939614  4.123471
  N    -3.677037  2.067929  3.779870
  S    -4.538085 -1.205227  2.749882
  S    -4.422666  1.847415  2.303380
  S    -1.567838 -1.245389 -0.156442
  S    -1.241620  2.119161 -0.304102
  S    -1.962422 -0.867508  3.839406
  S    -2.040752  2.409087  3.748679
