16  
    
  C     0.892054  0.222677  2.957751
  C     0.518288  3.655065  2.954209
  C    -0.363483 -0.075805  2.274018
  C    -0.826067  3.594744  2.362305
  N     1.885104  0.390566  2.068903
  N     1.460618  3.750568  2.023496
  N    -0.221125 -0.391507  0.995840
  N    -0.843274  3.576925  1.032608
  N    -0.897431  0.180304  4.813601
  N    -1.121713  3.487136  4.941070
  S    -1.706443 -0.193978  3.393546
  S    -2.037355  3.315962  3.587778
  S     1.330377 -0.040632  0.556773
  S     0.694080  3.860170  0.545198
  S     0.735666  0.536757  4.663320
  S     0.532574  3.590754  4.705681
