16  
    
  C     1.619774  0.815618  3.260749
  C     2.017644  4.583894  3.270556
  C     0.579553  0.170700  2.508039
  C     0.799314  4.057341  2.671755
  N     2.668745  1.228441  2.549014
  N     3.033398  4.611290  2.454230
  N     0.864017  0.008782  1.237548
  N     0.876738  3.927358  1.368028
  N    -0.297900  0.377978  4.995830
  N     0.320563  4.249911  5.214166
  S    -0.808888 -0.150278  3.473425
  S    -0.441852  3.705702  3.836000
  S     2.400531  0.698791  0.989382
  S     2.479975  4.372143  0.898411
  S     1.300476  0.916941  4.939921
  S     1.842131  4.922344  4.938913
