16  
    
  C    -0.119883 -0.534914  2.586587
  C     0.006649  3.236849  2.616452
  C    -1.241275 -1.067851  1.889592
  C    -1.149136  2.657380  1.894211
  N     0.865969 -0.139434  1.783957
  N     0.923936  3.757586  1.776015
  N    -1.116871 -1.163700  0.580588
  N    -0.912528  2.348502  0.625401
  N    -1.875668 -0.992784  4.343694
  N    -1.887907  2.885875  4.318802
  S    -2.606733 -1.353411  2.889549
  S    -2.512455  2.301386  2.905262
  S     0.389055 -0.537593  0.216826
  S     0.495017  3.161052  0.240253
  S    -0.232860 -0.483973  4.298584
  S    -0.353316  3.522963  4.335881
