16  
    
  C     1.074153  0.110183  2.920632
  C     0.922853  3.664113  3.067032
  C    -0.165225 -0.421853  2.440605
  C    -0.418930  3.475015  2.522954
  N     2.006308  0.231854  1.970686
  N     1.902043  3.843983  2.111428
  N    -0.186203 -0.728557  1.156364
  N    -0.354506  3.193623  1.216238
  N    -0.389383 -0.069208  4.981127
  N    -0.819312  3.483842  5.010240
  S    -1.350932 -0.542241  3.743712
  S    -1.703587  3.279265  3.654443
  S     1.289710 -0.276693  0.591615
  S     1.127507  3.542397  0.691452
  S     1.200359  0.434339  4.660684
  S     0.809978  3.959770  4.749936
