16  
    
  C    -0.171550  0.140144  2.543288
  C     0.013216  3.656108  2.464985
  C    -1.367444 -0.501639  2.099981
  C    -1.221157  3.025540  1.882221
  N     0.793141  0.238665  1.622303
  N     0.946538  3.944393  1.576380
  N    -1.387544 -0.771443  0.791723
  N    -1.075670  2.691135  0.610588
  N    -1.647790 -0.351327  4.566491
  N    -1.718049  3.504222  4.362470
  S    -2.617938 -0.750206  3.254432
  S    -2.549877  2.912567  3.035520
  S     0.118737 -0.383039  0.203886
  S     0.451102  3.169658  0.182318
  S    -0.041257 -0.006480  4.225206
  S    -0.200890  4.030399  4.118900
