16  
    
  C    -4.151931 -2.080040  1.847626
  C    -4.135849  1.358372  1.806592
  C    -5.462457 -2.155650  1.323402
  C    -5.408151  1.201318  1.061338
  N    -3.182772 -2.060036  0.905095
  N    -3.032806  1.259723  1.045870
  N    -5.561141 -2.441471  0.025537
  N    -5.229164  1.157636 -0.253973
  N    -5.662554 -2.177729  3.935380
  N    -6.065070  1.529347  3.488999
  S    -6.677972 -2.283321  2.607889
  S    -6.839926  1.271557  2.006555
  S    -4.002014 -2.460602 -0.510505
  S    -3.631754  1.155438 -0.548196
  S    -4.062073 -2.012274  3.531898
  S    -4.343749  1.589664  3.452767
