16  
    
  C     1.993600  1.160488  3.023034
  C     2.278335  4.426081  3.065318
  C     0.798059  0.618533  2.433802
  C     1.140403  3.949148  2.347401
  N     3.016761  1.297932  2.167702
  N     3.392879  4.450647  2.319700
  N     0.899777  0.257923  1.166580
  N     1.262214  3.722130  1.027477
  N     0.203776  1.101980  4.986056
  N     0.266458  4.388136  4.653402
  S    -0.534563  0.565816  3.474992
  S    -0.364131  3.858157  3.270282
  S     2.475952  0.706402  0.676954
  S     2.892329  3.955744  0.785272
  S     1.830355  1.320875  4.744461
  S     1.854838  4.595025  4.733091
