16  
    
  C    -1.469950 -1.304237  2.142319
  C    -1.690004  2.267930  1.921485
  C    -2.786754 -1.350690  1.522627
  C    -3.012749  2.051931  1.324727
  N    -0.419510 -1.357417  1.341026
  N    -0.708599  2.389815  1.058459
  N    -2.724798 -1.501989  0.214540
  N    -2.972189  2.024004  0.003627
  N    -3.228982 -1.012357  4.058014
  N    -3.451762  2.346799  3.843171
  S    -4.061546 -1.180823  2.650019
  S    -4.299730  1.799453  2.501448
  S    -1.128726 -1.420552 -0.211568
  S    -1.371543  2.253602 -0.443695
  S    -1.607195 -0.779385  3.813159
  S    -1.793143  2.482366  3.624844
