16  
    
  C    -4.177730 -2.219828  2.060153
  C    -4.190383  1.424021  1.880055
  C    -5.495960 -2.495506  1.490168
  C    -5.423477  1.194871  1.207096
  N    -3.253922 -2.092471  1.114711
  N    -3.112010  1.446535  1.116891
  N    -5.586808 -2.474384  0.166341
  N    -5.319173  1.066068 -0.088085
  N    -5.806413 -2.143379  4.051357
  N    -5.993499  1.491396  3.608054
  S    -6.743907 -2.367571  2.745941
  S    -6.856848  1.198193  2.192177
  S    -3.996727 -2.186234 -0.343426
  S    -3.662797  1.189187 -0.383090
  S    -4.211300 -1.927977  3.721822
  S    -4.366721  1.508776  3.577160
