16  
    
  C    -4.788812 -2.349041  1.748997
  C    -4.981328  1.067917  1.774942
  C    -6.019432 -2.793859  1.177335
  C    -6.059342  0.451525  1.091364
  N    -3.834162 -2.048096  0.896572
  N    -3.974059  1.234137  0.978109
  N    -5.923617 -2.991389 -0.129839
  N    -5.873592  0.204237 -0.188738
  N    -6.398884 -2.853642  3.723357
  N    -6.794097  0.930469  3.459335
  S    -7.235025 -3.252364  2.384497
  S    -7.365035  0.127749  2.185623
  S    -4.388891 -2.615932 -0.588915
  S    -4.381460  0.821610 -0.520191
  S    -4.906373 -2.183781  3.476001
  S    -5.243549  1.518364  3.423262
