16  
    
  C     2.386207  1.041590  3.229267
  C     2.966581  5.192217  3.965913
  C     1.241179  0.491300  2.529368
  C     1.682587  4.976572  3.360393
  N     3.490827  1.273527  2.536312
  N     3.979783  5.348082  3.130338
  N     1.468728  0.248896  1.234258
  N     1.772272  4.698522  2.057938
  N     0.554086  1.036823  5.030352
  N     1.242917  5.800015  5.685212
  S    -0.120345  0.367886  3.646965
  S     0.368869  5.127591  4.456006
  S     3.061244  0.754424  0.938972
  S     3.383768  4.836999  1.653924
  S     2.243562  1.330876  4.932877
  S     2.878182  5.912947  5.492560
