16  
    
  C     2.034782  1.010547  3.208114
  C     2.127479  4.484727  2.921749
  C     0.802916  0.677290  2.569686
  C     0.956223  3.877636  2.361359
  N     3.086335  1.084166  2.390379
  N     3.246651  4.539970  2.209567
  N     0.874305  0.613598  1.241211
  N     1.127520  3.706379  1.045561
  N     0.352355  0.873579  5.132506
  N     0.422615  4.235659  4.761711
  S    -0.440874  0.446281  3.688786
  S    -0.406054  3.890012  3.367483
  S     2.527212  0.841889  0.875139
  S     2.729683  4.174825  0.655930
  S     1.950632  1.420544  4.860145
  S     1.982880  4.562486  4.656440
