16  
    
  C     1.400825  0.735186  2.894674
  C     0.859444  4.169750  2.524329
  C     0.194057  0.285141  2.260240
  C    -0.173951  3.418281  1.919903
  N     2.388287  1.034095  2.094324
  N     1.984820  4.319962  1.778744
  N     0.339977  0.199409  0.943190
  N    -0.021446  3.357209  0.595439
  N    -0.217532  0.190109  4.885256
  N    -0.887111  3.727089  4.369198
  S    -1.052038  0.107919  3.405941
  S    -1.553159  3.153698  2.943202
  S     1.902704  0.675462  0.576159
  S     1.493188  3.857160  0.277218
  S     1.341440  0.760695  4.631067
  S     0.614507  4.347352  4.226808
