16  
    
  C     2.079404  0.731441  3.140846
  C     2.079522  4.543293  2.941807
  C     0.782690  0.516077  2.522621
  C     0.929447  3.855926  2.398025
  N     3.095390  0.615518  2.272450
  N     3.181322  4.578939  2.178783
  N     0.824473  0.223673  1.230537
  N     1.095926  3.655614  1.080402
  N     0.328114  1.030411  5.015060
  N     0.260605  4.468513  4.852411
  S    -0.522369  0.615294  3.701290
  S    -0.514844  3.952822  3.500474
  S     2.435629  0.261398  0.802202
  S     2.631926  4.006286  0.740308
  S     2.010689  0.999643  4.872868
  S     1.907813  4.770378  4.681825
