16  
    
  C    -0.531865 -0.310739  2.656711
  C    -0.332732  3.269234  2.727167
  C    -1.819899 -0.726529  2.035625
  C    -1.427177  2.692317  2.041951
  N     0.525046 -0.337279  1.842220
  N     0.664292  3.496706  1.859949
  N    -1.750563 -0.850303  0.714564
  N    -1.228259  2.218414  0.812532
  N    -2.288426 -0.685233  4.512971
  N    -2.245996  3.120445  4.479842
  S    -3.143834 -1.030785  3.084072
  S    -2.756834  2.296010  3.099887
  S    -0.120450 -0.636141  0.285952
  S     0.302642  2.767705  0.411171
  S    -0.735659 -0.128255  4.363984
  S    -0.686177  3.789817  4.371493
