16  
    
  C    -2.833687 -1.727095  2.028692
  C    -2.417212  2.255104  1.981807
  C    -4.056186 -2.126715  1.341049
  C    -3.694116  1.935128  1.460584
  N    -1.948508 -1.250000  1.148571
  N    -1.403590  1.990080  1.150117
  N    -4.024193 -2.171359 -0.020444
  N    -3.711894  1.612041  0.173988
  N    -4.624128 -2.046072  3.904682
  N    -4.172096  2.216690  3.954282
  S    -5.288302 -2.586596  2.451268
  S    -5.063831  2.097881  2.533035
  S    -2.536586 -1.613198 -0.404601
  S    -2.168017  1.582909 -0.304255
  S    -3.053365 -1.593013  3.790928
  S    -2.477311  2.323606  3.709954
