16  
    
  C     0.871984  0.231656  2.854644
  C     0.542267  3.658138  2.951666
  C    -0.328891 -0.331962  2.258797
  C    -0.784437  3.504778  2.414838
  N     1.915627  0.360246  2.007758
  N     1.477159  3.956781  2.036096
  N    -0.290441 -0.487708  0.934909
  N    -0.899526  3.749997  1.130001
  N    -0.855536  0.036362  4.827391
  N    -1.126417  3.352833  4.937031
  S    -1.673318 -0.172760  3.404829
  S    -2.095445  3.335364  3.569200
  S     1.289320 -0.051650  0.506789
  S     0.716062  3.866584  0.551766
  S     0.734574  0.363028  4.644620
  S     0.520351  3.423188  4.667163
