16  
    
  C    -1.318003 -0.695716  1.846852
  C    -1.275537  3.319168  2.119970
  C    -2.683185 -1.074035  1.457755
  C    -2.352692  2.635749  1.531074
  N    -0.490178 -0.581462  0.832041
  N    -0.355180  3.630045  1.208799
  N    -2.808724 -1.415524  0.218361
  N    -2.421876  2.707615  0.175106
  N    -2.727481 -0.693397  3.943038
  N    -2.865380  2.890084  4.093153
  S    -3.673830 -1.491320  2.872267
  S    -3.592566  2.227096  2.719877
  S    -1.308254 -1.084517 -0.519337
  S    -0.942973  3.261784 -0.307177
  S    -1.200328 -0.232056  3.461250
  S    -1.384497  3.662487  3.805107
