16  
    
  C     1.413733  0.905721  3.284471
  C     1.241201  4.296683  3.096881
  C     0.137915  0.395081  2.836620
  C    -0.036975  4.110145  2.435098
  N     2.397206  0.920075  2.379595
  N     2.253837  4.625895  2.249495
  N     0.195441 -0.059603  1.590009
  N     0.024330  3.966132  1.103815
  N    -0.263560  0.957463  5.291156
  N    -0.585454  4.171512  4.911229
  S    -1.185244  0.429802  3.994739
  S    -1.337015  3.682980  3.555815
  S     1.698184  0.231184  0.975486
  S     1.547711  4.429424  0.732978
  S     1.343287  1.180121  5.044024
  S     1.063870  4.523010  4.890025
