16  
    
  C    -5.774946 -3.121846  1.588410
  C    -6.042294  0.737564  1.382725
  C    -6.934488 -3.450717  0.807260
  C    -7.216897  0.179037  0.840446
  N    -4.647405 -2.932394  0.916286
  N    -5.235811  1.267884  0.456470
  N    -6.723206 -3.602978 -0.487279
  N    -7.228923  0.138864 -0.481187
  N    -7.763326 -3.098113  3.231960
  N    -7.694521  0.261770  3.396724
  S    -8.404258 -3.481320  1.720585
  S    -8.430024 -0.281242  2.011649
  S    -5.085758 -3.303065 -0.706911
  S    -5.872701  0.960768 -1.034672
  S    -6.093615 -3.011686  3.313629
  S    -6.140577  0.890114  3.088242
