16  
    
  C    -0.377196 -0.760195  2.720888
  C    -0.333625  3.296566  2.741123
  C    -1.693224 -1.207497  2.192594
  C    -1.476901  2.756813  2.072563
  N     0.535038 -0.592689  1.807343
  N     0.713723  3.509822  1.924150
  N    -1.755917 -1.437937  0.905583
  N    -1.199413  2.263496  0.869996
  N    -2.117636 -0.698220  4.688615
  N    -2.270024  3.047503  4.442363
  S    -2.975363 -1.123866  3.303484
  S    -2.805802  2.307229  3.096772
  S    -0.214582 -1.001774  0.340846
  S     0.276832  2.889857  0.452774
  S    -0.528988 -0.359576  4.412516
  S    -0.746113  3.690221  4.400403
