16  
    
  C    -0.821361 -0.771355  2.365089
  C    -0.838385  3.189577  2.378522
  C    -2.004982 -1.364853  1.672007
  C    -2.030182  2.628183  1.869465
  N     0.208097 -0.477065  1.542923
  N     0.221016  3.206934  1.553392
  N    -1.738700 -1.752044  0.436046
  N    -1.928132  2.428773  0.541098
  N    -2.722479 -0.860029  4.103101
  N    -2.422992  2.787400  4.351307
  S    -3.353749 -1.558474  2.686220
  S    -3.321869  2.606692  3.009771
  S    -0.173975 -1.219530  0.094719
  S    -0.422153  2.887227  0.070730
  S    -1.132354 -0.528973  4.071006
  S    -0.847049  3.264130  4.165859
