16  
    
  C     2.233103  0.932165  3.340439
  C     2.126784  4.587122  2.971086
  C     0.968944  0.597843  2.750633
  C     0.890198  4.165513  2.310384
  N     3.210809  1.088013  2.438895
  N     3.124250  4.601813  2.120954
  N     0.976310  0.468695  1.442987
  N     0.910931  4.077806  0.981458
  N     0.363539  1.019798  5.263585
  N     0.371245  4.432771  4.767225
  S    -0.392959  0.541527  3.825107
  S    -0.376602  3.789794  3.437138
  S     2.562690  0.793515  0.923531
  S     2.559253  4.319621  0.539783
  S     2.091254  1.153228  5.074976
  S     1.967656  4.728043  4.764043
