16  
    
  C    -3.553322 -2.660475  1.893116
  C    -3.520224  1.828434  1.806530
  C    -4.786198 -2.908309  1.157284
  C    -4.548502  0.899532  1.255800
  N    -2.517392 -2.405773  1.077694
  N    -2.513345  2.150464  0.995432
  N    -4.704326 -3.027286 -0.155643
  N    -4.377601  0.650747 -0.066312
  N    -5.437216 -2.722248  3.613930
  N    -5.300434  1.524439  3.612266
  S    -6.156610 -3.236199  2.214527
  S    -5.919095  0.737821  2.307735
  S    -3.107231 -2.633653 -0.469382
  S    -2.970714  1.421749 -0.488353
  S    -3.776794 -2.346082  3.567859
  S    -3.801816  2.131592  3.450827
