16  
    
  C    -5.193603 -2.985802  1.426076
  C    -5.514446  1.089071  1.319653
  C    -6.491614 -3.414354  0.849900
  C    -6.640555  0.488980  0.580726
  N    -4.353410 -2.472232  0.541888
  N    -4.491546  1.451654  0.543085
  N    -6.458575 -3.549979 -0.478786
  N    -6.485658  0.488691 -0.736144
  N    -7.009082 -2.891209  3.309330
  N    -7.265866  0.656039  3.057276
  S    -7.813956 -3.620746  2.024240
  S    -7.952308  0.044200  1.632054
  S    -4.997784 -2.817860 -1.008675
  S    -4.934786  1.058522 -1.050582
  S    -5.368313 -2.672020  3.168163
  S    -5.692174  1.119484  3.096123
