16  
    
  C    -5.339402 -2.614686  1.332053
  C    -5.439413  1.060367  1.303139
  C    -6.621655 -3.014831  0.767094
  C    -6.576899  0.498572  0.601105
  N    -4.387309 -2.286851  0.464631
  N    -4.444379  1.408828  0.492901
  N    -6.583946 -3.255324 -0.530728
  N    -6.377463  0.477844 -0.697016
  N    -6.878250 -3.111421  3.318336
  N    -7.152139  0.460459  3.058421
  S    -7.775464 -3.448646  1.999494
  S    -7.935513  0.127661  1.639519
  S    -5.009241 -2.839366 -1.008262
  S    -4.925041  1.138040 -1.057505
  S    -5.360219 -2.482500  3.030005
  S    -5.666473  1.196696  2.995007
