16  
    
  C     2.920575  1.479678  3.473941
  C     2.817763  5.191611  3.177896
  C     1.760448  0.902337  2.815966
  C     1.740087  4.422674  2.631393
  N     3.865258  1.806980  2.612918
  N     3.868894  5.312968  2.365881
  N     1.871676  0.730489  1.491692
  N     1.835976  4.200142  1.313969
  N     1.167671  1.436828  5.280173
  N     1.269740  4.948002  5.096572
  S     0.419815  0.724615  3.939782
  S     0.492794  4.164749  3.851498
  S     3.345380  1.392979  1.052349
  S     3.281713  4.856747  0.875191
  S     2.810042  1.700869  5.188350
  S     2.836339  5.475417  4.864568
