16  
    
  C    -3.661510 -2.457136  1.777372
  C    -3.422361  1.735511  1.775014
  C    -4.862656 -2.840107  1.100298
  C    -4.562984  1.062634  1.117116
  N    -2.647605 -2.307611  0.960878
  N    -2.465805  1.986378  0.896611
  N    -4.760605 -2.908552 -0.215542
  N    -4.364362  0.705779 -0.172800
  N    -5.448961 -2.780739  3.632130
  N    -5.279741  1.518149  3.649276
  S    -6.209471 -3.037784  2.180094
  S    -5.887446  0.772595  2.255509
  S    -3.174630 -2.566173 -0.563067
  S    -2.868534  1.348973 -0.612454
  S    -3.824217 -2.537217  3.520762
  S    -3.686656  2.122113  3.475754
