16  
    
  C    -0.973066 -0.714495  2.401409
  C    -0.639706  3.260158  2.807956
  C    -2.189655 -0.976269  1.784088
  C    -1.865169  2.789553  2.166109
  N     0.049351 -0.497469  1.548814
  N     0.432018  3.204190  2.015424
  N    -2.054494 -1.274360  0.478330
  N    -1.714994  2.381375  0.911858
  N    -2.753838 -0.763233  4.248665
  N    -2.405086  3.125570  4.668982
  S    -3.591049 -1.187917  2.845385
  S    -3.194222  2.780966  3.245236
  S    -0.517367 -1.023237  0.064973
  S    -0.147012  2.713739  0.513431
  S    -1.157927 -0.443201  4.119853
  S    -0.794389  3.558553  4.526315
