16  
    
  C    -5.154445 -2.543963  1.849640
  C    -5.412341  1.042918  1.547465
  C    -6.428933 -2.776459  1.232739
  C    -6.651446  0.698697  0.928082
  N    -4.155935 -2.475938  1.005798
  N    -4.379232  1.093503  0.724611
  N    -6.337973 -3.078137 -0.063272
  N    -6.617415  0.677905 -0.386306
  N    -6.937949 -2.068373  3.633686
  N    -7.125634  1.070714  3.457790
  S    -7.710201 -2.759540  2.338702
  S    -7.957901  0.973792  2.032392
  S    -4.782853 -2.816864 -0.461182
  S    -4.993430  0.904322 -0.805555
  S    -5.278195 -2.052853  3.512553
  S    -5.541824  1.366469  3.293057
