16  
    
  C    -2.537719 -1.745077  1.922787
  C    -3.180037  2.059098  1.710993
  C    -3.838308 -1.967864  1.329833
  C    -4.240654  1.421615  0.984741
  N    -1.527601 -1.899424  1.053461
  N    -2.102010  2.380766  1.024559
  N    -3.804143 -2.182469  0.022927
  N    -3.992216  1.270618 -0.309766
  N    -4.287520 -1.646013  3.869320
  N    -5.030666  1.569113  3.421638
  S    -5.226765 -1.866357  2.505831
  S    -5.625579  0.994672  1.955234
  S    -2.222771 -2.113178 -0.436975
  S    -2.512042  1.879689 -0.532648
  S    -2.652420 -1.504384  3.634965
  S    -3.424855  2.233914  3.442371
