16  
    
  C    -2.569554 -1.919368  1.963700
  C    -3.035051  2.122974  1.788668
  C    -3.864526 -2.035261  1.289545
  C    -4.147137  1.544806  1.044056
  N    -1.504228 -1.934553  1.155486
  N    -2.066266  2.509496  1.015042
  N    -3.741401 -2.306240 -0.012567
  N    -3.982711  1.482659 -0.260547
  N    -4.322919 -1.843461  3.818756
  N    -4.815114  1.631921  3.461051
  S    -5.267606 -1.895084  2.414417
  S    -5.509327  1.149699  2.041627
  S    -2.134460 -2.182131 -0.410044
  S    -2.476775  2.208284 -0.537446
  S    -2.712069 -1.699796  3.640933
  S    -3.314968  2.319996  3.458591
