16  
    
  C     2.545405  1.125532  3.241516
  C     2.553962  4.655787  3.540533
  C     1.332480  0.806452  2.489813
  C     1.338958  4.401162  2.760832
  N     3.587037  1.298327  2.464829
  N     3.556356  5.045703  2.751185
  N     1.423822  0.788544  1.163437
  N     1.461980  4.313587  1.449479
  N     0.702822  0.780352  4.993123
  N     0.521148  4.440164  5.196037
  S     0.056120  0.301375  3.502372
  S     0.010522  3.925342  3.738983
  S     3.041363  1.092698  0.842305
  S     3.049011  4.730567  1.141907
  S     2.329478  0.957502  4.988996
  S     2.121402  4.971681  5.239085
