16  
    
  C     2.992419  1.579456  3.473920
  C     2.941632  5.153260  3.192021
  C     1.820721  0.928854  2.949037
  C     1.763900  4.547574  2.685690
  N     3.897291  1.829221  2.492383
  N     3.812353  5.532632  2.245558
  N     1.804248  0.684940  1.660866
  N     1.790047  4.243319  1.390998
  N     1.136797  1.465794  5.310168
  N     1.309616  4.758134  5.282309
  S     0.481258  0.654282  3.981858
  S     0.542067  4.161102  3.878006
  S     3.274623  1.222175  1.119623
  S     3.288717  4.838891  0.821461
  S     2.738534  1.821450  5.164931
  S     2.740481  5.479427  4.930696
