16  
    
  C    -4.736367 -2.358918  1.480353
  C    -4.385772  0.970128  1.817515
  C    -5.903339 -2.846663  0.831373
  C    -5.661256  0.682399  1.193470
  N    -3.679246 -2.114156  0.687399
  N    -3.442415  1.431146  1.013244
  N    -5.790420 -2.732823 -0.500764
  N    -5.569415  0.760767 -0.099668
  N    -6.420923 -2.889993  3.324379
  N    -6.154882  0.635619  3.582967
  S    -7.243347 -3.087000  1.890547
  S    -7.014995  0.428823  2.210189
  S    -4.273706 -2.247101 -0.885458
  S    -4.109246  1.309730 -0.517788
  S    -4.859670 -2.322906  3.283109
  S    -4.559923  1.103017  3.497316
