16  
    
  C    -5.720454 -2.954358  1.478814
  C    -6.073278  0.972884  1.416000
  C    -6.875267 -3.545974  0.841521
  C    -7.248485  0.267387  0.891995
  N    -4.675068 -2.903112  0.633744
  N    -5.139075  1.360567  0.531574
  N    -6.777535 -3.600318 -0.496599
  N    -7.205362  0.096416 -0.437449
  N    -7.526761 -3.578974  3.315823
  N    -7.472131  0.170597  3.514325
  S    -8.238548 -3.807986  1.836418
  S    -8.311910 -0.349887  2.175728
  S    -5.219767 -3.296471 -0.861995
  S    -5.776657  0.790685 -0.942624
  S    -6.056616 -2.767519  3.251158
  S    -6.102134  0.976997  3.181000
