16  
    
  C     1.407115  0.669928  3.082846
  C     0.967534  4.219513  2.753670
  C     0.190196  0.260955  2.478398
  C    -0.052224  3.619844  2.008108
  N     2.349847  0.892956  2.172979
  N     1.998657  4.497893  2.011528
  N     0.185694  0.120595  1.145316
  N     0.108847  3.662785  0.692585
  N    -0.412123  0.688146  4.949212
  N    -0.925517  3.855798  4.386560
  S    -1.126930  0.132985  3.539304
  S    -1.454380  3.259208  2.983707
  S     1.723100  0.540171  0.716717
  S     1.688470  4.147874  0.455119
  S     1.278790  0.898288  4.776032
  S     0.655466  4.376770  4.460057
