16  
    
  C     1.123675  0.131969  2.953079
  C     0.889748  3.736528  3.066876
  C    -0.184872 -0.400021  2.467222
  C    -0.397060  3.454484  2.536122
  N     2.008034  0.258471  1.967514
  N     1.843139  3.815441  2.143261
  N    -0.163401 -0.773865  1.162331
  N    -0.363499  3.206762  1.224206
  N    -0.351218 -0.032864  4.929832
  N    -0.843549  3.419379  5.033983
  S    -1.372350 -0.555349  3.732566
  S    -1.720923  3.253780  3.644290
  S     1.325368 -0.303785  0.609708
  S     1.138909  3.589000  0.713252
  S     1.213238  0.470500  4.652653
  S     0.788032  3.886389  4.803397
