16  
    
  C     1.748762  0.571774  3.026911
  C     1.887023  4.233428  3.301971
  C     0.493311  0.192614  2.462975
  C     0.608409  4.018377  2.702616
  N     2.709090  0.777568  2.167128
  N     2.942132  4.352422  2.537698
  N     0.509245  0.027441  1.136260
  N     0.679846  4.229476  1.428536
  N     0.172981  0.330655  4.961063
  N     0.189637  3.932053  5.219718
  S    -0.782161  0.066906  3.623412
  S    -0.719529  3.802496  3.810451
  S     2.121354  0.458978  0.660064
  S     2.349321  4.301477  0.962190
  S     1.858998  0.512479  4.745117
  S     1.817089  4.248643  5.054005
