16  
    
  C     1.785555  0.450327  3.172093
  C     1.894732  4.571957  3.366592
  C     0.595517  0.139049  2.448881
  C     0.803566  3.933549  2.682291
  N     2.863532  0.716877  2.434730
  N     2.911855  4.800337  2.548730
  N     0.714212  0.250256  1.141880
  N     0.861142  3.942189  1.328800
  N    -0.034695  0.008023  4.885756
  N     0.335603  4.014578  5.290240
  S    -0.782666 -0.266128  3.466427
  S    -0.484810  3.715930  3.789018
  S     2.344185  0.702036  0.856255
  S     2.401181  4.632394  0.970605
  S     1.534323  0.617425  4.852342
  S     1.909568  4.430217  5.051507
