16  
    
  C    -5.875202 -3.162944  1.432788
  C    -6.026818  0.880371  1.353823
  C    -7.070519 -3.341621  0.635903
  C    -7.233612  0.473769  0.676730
  N    -4.758933 -2.898932  0.750804
  N    -4.994402  1.141057  0.565896
  N    -6.777118 -3.554604 -0.650687
  N    -7.182445  0.442723 -0.668675
  N    -7.737656 -3.272540  3.130763
  N    -7.729310  0.256222  3.210494
  S    -8.494620 -3.427045  1.639394
  S    -8.599507  0.143878  1.758352
  S    -5.152954 -3.249103 -0.782967
  S    -5.581469  0.821817 -1.000324
  S    -6.090921 -2.963159  3.125619
  S    -6.148406  0.697327  3.055318
