16  
    
  C    -5.345135 -2.122365  1.682952
  C    -5.380508  1.244010  1.420737
  C    -6.554804 -2.651392  1.058576
  C    -6.631439  0.902103  0.806490
  N    -4.270951 -2.175173  0.870187
  N    -4.315359  1.240728  0.596223
  N    -6.494143 -2.909804 -0.236062
  N    -6.510011  0.655784 -0.511740
  N    -7.026799 -2.540766  3.580129
  N    -7.131448  1.071809  3.393300
  S    -7.810394 -2.772751  2.141166
  S    -7.883530  0.735878  1.944059
  S    -4.894771 -2.597819 -0.650391
  S    -4.906536  0.732558 -0.851818
  S    -5.466315 -1.960878  3.404410
  S    -5.454857  1.333819  3.147063
