16  
    
  C    -5.453213 -2.643082  1.566834
  C    -5.529268  0.917375  1.351552
  C    -6.658227 -3.093997  0.886932
  C    -6.698022  0.436843  0.719730
  N    -4.379169 -2.688157  0.787812
  N    -4.551075  1.247796  0.507674
  N    -6.570181 -3.119205 -0.454390
  N    -6.502105  0.317645 -0.585641
  N    -7.265097 -3.341493  3.376743
  N    -7.199086  0.459230  3.250180
  S    -8.034208 -3.374281  1.899500
  S    -8.021447  0.128851  1.776480
  S    -4.959515 -3.046185 -0.782301
  S    -5.010304  0.855894 -0.994590
  S    -5.773236 -2.539643  3.313862
  S    -5.695604  1.219685  3.109213
