16  
    
  C     2.892075  1.442302  3.387256
  C     2.939123  5.047891  3.191247
  C     1.711784  0.943164  2.755730
  C     1.715095  4.454922  2.646231
  N     3.899456  1.754940  2.566508
  N     3.894822  5.316032  2.327605
  N     1.856805  0.827523  1.447938
  N     1.804286  4.262967  1.359142
  N     1.173526  1.298092  5.359418
  N     1.224661  5.026851  5.098161
  S     0.407360  0.762315  3.932198
  S     0.449984  4.195799  3.785473
  S     3.421547  1.461124  1.073238
  S     3.336192  4.837280  0.882410
  S     2.795264  1.637695  5.159152
  S     2.833321  5.466434  4.854395
