16  
    
  C     2.537281  1.215544  3.372272
  C     2.803228  5.080152  3.765335
  C     1.462813  0.616853  2.643814
  C     1.543621  4.638616  3.200855
  N     3.590930  1.361557  2.556866
  N     3.755179  5.193427  2.812283
  N     1.691143  0.287892  1.381072
  N     1.571446  4.229741  1.925328
  N     0.558804  0.879990  5.061074
  N     1.162809  4.937972  5.652730
  S     0.017192  0.531695  3.490000
  S     0.336005  4.329860  4.364011
  S     3.230274  0.822043  1.088430
  S     3.083047  4.582187  1.440141
  S     2.157838  1.383033  5.079913
  S     2.604558  5.651986  5.419152
