16  
    
  C    -0.895576 -0.514119  2.463542
  C    -1.072850  3.026687  2.465566
  C    -2.066580 -1.160722  1.787437
  C    -2.308063  2.810133  1.750462
  N     0.172267 -0.334696  1.682204
  N    -0.034447  3.108877  1.672997
  N    -1.889762 -1.203004  0.458335
  N    -2.204326  2.539635  0.448670
  N    -2.683789 -1.180848  4.288941
  N    -2.883320  3.202801  4.250015
  S    -3.416080 -1.532283  2.811013
  S    -3.693961  2.982871  2.847546
  S    -0.332927 -0.714905  0.118541
  S    -0.537668  2.675255  0.143732
  S    -1.106837 -0.595001  4.131745
  S    -1.245842  3.355721  4.159719
