16  
    
  C    -0.791262 -0.639548  2.409998
  C    -0.465855  3.220743  2.936096
  C    -2.031146 -0.911814  1.755780
  C    -1.736806  2.922016  2.251522
  N     0.290958 -0.595204  1.661773
  N     0.578942  3.344932  2.127927
  N    -2.007128 -0.948372  0.427843
  N    -1.521456  2.622819  0.970957
  N    -2.597190 -0.683173  4.257771
  N    -2.368856  3.416671  4.769054
  S    -3.373685 -1.101530  2.875048
  S    -3.023054  2.725530  3.358133
  S    -0.296148 -0.736476  0.103990
  S     0.070151  3.009950  0.628333
  S    -0.938161 -0.416884  4.159368
  S    -0.692823  3.772358  4.567447
