16  
    
  C     1.725099  0.681039  3.290937
  C     2.042924  4.612615  3.285394
  C     0.627750  0.181296  2.466986
  C     0.852326  3.974133  2.736184
  N     2.797486  1.006161  2.526888
  N     2.993442  4.926099  2.435711
  N     0.840936  0.118735  1.158197
  N     0.865002  4.032949  1.429477
  N    -0.235079  0.211472  4.890698
  N     0.387487  4.054884  5.227947
  S    -0.737794 -0.349023  3.399847
  S    -0.484261  3.660511  3.769312
  S     2.428353  0.670546  0.917278
  S     2.425512  4.483358  0.885565
  S     1.425884  0.674305  5.016120
  S     1.900180  4.694371  5.020212
