16  
    
  C    -2.669171 -1.831940  1.947385
  C    -2.961766  2.121815  1.786197
  C    -3.894124 -2.119756  1.269154
  C    -4.118145  1.569748  1.078404
  N    -1.589408 -1.889532  1.151134
  N    -1.950086  2.588579  1.056007
  N    -3.774688 -2.188788 -0.073867
  N    -3.873126  1.489159 -0.238917
  N    -4.489395 -1.849430  3.799131
  N    -4.837262  1.662913  3.576096
  S    -5.239478 -2.004458  2.367660
  S    -5.471219  1.309246  2.077997
  S    -2.115450 -2.200339 -0.358792
  S    -2.485289  2.287636 -0.507924
  S    -2.802502 -1.742866  3.705322
  S    -3.292377  2.326553  3.474684
