16  
    
  C    -0.334853 -0.130932  2.539500
  C    -0.359920  3.258082  2.521064
  C    -1.423949 -0.852569  1.797626
  C    -1.581550  2.757502  2.005408
  N     0.767020  0.003026  1.832124
  N     0.605090  3.462907  1.635877
  N    -1.212285 -1.088303  0.526062
  N    -1.573344  2.679127  0.677445
  N    -2.139455 -0.607501  4.292814
  N    -2.058851  3.204220  4.519343
  S    -2.789287 -0.999671  2.800648
  S    -2.902518  2.831443  3.097527
  S     0.411338 -0.548702  0.279985
  S    -0.010962  2.997590  0.171784
  S    -0.565640 -0.096082  4.297830
  S    -0.434040  3.497300  4.256821
