16  
    
  C    -1.587615 -1.165725  2.113854
  C    -1.755021  2.359240  1.941044
  C    -2.906310 -1.344779  1.476214
  C    -2.953664  2.065033  1.265542
  N    -0.631036 -1.077235  1.231716
  N    -0.714093  2.473406  1.129906
  N    -2.907435 -1.530200  0.174923
  N    -2.855633  1.809130 -0.041330
  N    -3.334585 -1.003570  4.041593
  N    -3.555973  2.175992  3.796515
  S    -4.237442 -1.179776  2.662998
  S    -4.330097  1.912902  2.308463
  S    -1.321798 -1.403686 -0.265719
  S    -1.260178  2.194261 -0.392380
  S    -1.702863 -0.916942  3.814336
  S    -1.880405  2.365703  3.692794
