16  
    
  C     2.549325  1.086034  3.195812
  C     2.504437  4.799066  3.511937
  C     1.356882  0.770082  2.497362
  C     1.338424  4.426287  2.777024
  N     3.572044  1.312835  2.362288
  N     3.603225  5.007587  2.757358
  N     1.448446  0.683483  1.181976
  N     1.455150  4.354147  1.447979
  N     0.759704  0.745857  4.931162
  N     0.540901  4.487779  5.289132
  S     0.088686  0.351081  3.507199
  S     0.039454  3.918750  3.723523
  S     3.053259  1.035683  0.843152
  S     3.038814  4.705505  1.209331
  S     2.344589  0.978523  4.948511
  S     2.153573  5.002521  5.223160
