16  
    
  C     1.025549  0.201734  3.046728
  C     1.059070  4.164929  2.580542
  C    -0.241198  0.063978  2.362649
  C    -0.130999  3.419427  2.142701
  N     2.078375  0.279523  2.266153
  N     2.097435  4.214326  1.789250
  N    -0.121853 -0.147548  1.037563
  N     0.095768  2.887561  0.963650
  N    -0.740638 -0.126855  4.796704
  N    -0.743721  4.334777  4.484981
  S    -1.573874 -0.057798  3.388070
  S    -1.486074  3.372738  3.277470
  S     1.465532  0.043566  0.730053
  S     1.542950  3.420249  0.394821
  S     0.867743  0.256689  4.794555
  S     0.792181  4.746376  4.178121
