16  
    
  C     1.153762  0.196355  2.986982
  C     0.643001  3.893726  3.204962
  C    -0.001955 -0.421256  2.453370
  C    -0.491079  3.320203  2.484601
  N     2.148321  0.300022  2.109511
  N     1.772749  4.042086  2.485018
  N     0.086520 -0.744792  1.157892
  N    -0.316452  3.280627  1.136781
  N    -0.551805  0.203075  4.879875
  N    -1.133896  3.174182  4.926760
  S    -1.375067 -0.491289  3.567284
  S    -1.883331  2.904591  3.456647
  S     1.578648 -0.289462  0.662487
  S     1.233080  3.835674  0.883604
  S     1.107538  0.625348  4.678832
  S     0.488111  3.635270  4.891322
