16  
    
  C    -2.655429 -1.799458  2.015014
  C    -2.900236  2.260293  1.867847
  C    -3.921402 -2.106363  1.309496
  C    -4.089556  1.847340  1.117031
  N    -1.586776 -1.918575  1.229636
  N    -1.889833  2.702325  1.110571
  N    -3.786065 -2.218344  0.004875
  N    -3.849625  1.687147 -0.180558
  N    -4.670048 -1.894709  3.683633
  N    -4.756329  1.810812  3.597827
  S    -5.384509 -2.248537  2.260944
  S    -5.440072  1.451718  2.138845
  S    -2.200049 -2.070071 -0.325620
  S    -2.353155  2.242796 -0.476495
  S    -2.970641 -1.739848  3.719594
  S    -3.176571  2.333988  3.655746
