16  
    
  C     1.680119  0.826078  3.288463
  C     2.033307  4.506311  3.296487
  C     0.631578  0.187706  2.510301
  C     0.771789  4.146749  2.611106
  N     2.764718  1.192591  2.530648
  N     3.021925  4.720045  2.463911
  N     0.914412  0.018147  1.221807
  N     0.886770  3.909410  1.284768
  N    -0.268069  0.350049  4.882402
  N     0.385417  4.146989  5.160598
  S    -0.763894 -0.274509  3.428825
  S    -0.379654  3.678249  3.820162
  S     2.382268  0.650976  1.011160
  S     2.418514  4.436648  0.943924
  S     1.351566  0.765322  4.972543
  S     1.851332  4.859250  4.993348
