16  
    
  C    -0.068165 -0.434729  2.430421
  C    -0.365738  3.439665  2.609758
  C    -1.225107 -0.923202  1.811369
  C    -1.670243  3.026189  2.043279
  N     0.996618 -0.245417  1.668229
  N     0.636184  3.402981  1.730293
  N    -1.185365 -1.016003  0.474343
  N    -1.632067  3.055972  0.706594
  N    -1.899519 -0.604120  4.293422
  N    -1.995875  3.215148  4.552297
  S    -2.544327 -1.286565  2.915483
  S    -2.930511  2.920902  3.208856
  S     0.435359 -0.582211  0.091591
  S    -0.053411  3.215061  0.227348
  S    -0.356652  0.026847  4.076462
  S    -0.404828  3.592506  4.330235
