16  
    
  C     2.325532  0.979266  3.516981
  C     2.063223  4.877613  3.211103
  C     1.024810  0.633805  2.995339
  C     0.872972  4.598998  2.471631
  N     3.272561  1.058500  2.567311
  N     3.111694  5.249430  2.442534
  N     1.035760  0.347712  1.692098
  N     1.086813  4.507015  1.168533
  N     0.650943  0.859556  5.405610
  N     0.028037  4.562668  4.873764
  S    -0.309462  0.694321  4.068442
  S    -0.546835  4.166216  3.320342
  S     2.544869  0.640400  1.159851
  S     2.655307  4.920914  0.871856
  S     2.226961  1.141470  5.267080
  S     1.632166  5.260007  4.852884
