16  
    
  C    -1.103491 -0.703631  2.219313
  C    -0.699229  2.941360  2.638962
  C    -2.231450 -1.370198  1.703862
  C    -1.981027  2.628153  1.992045
  N    -0.026949 -0.692538  1.439126
  N     0.326837  3.085763  1.757696
  N    -2.145020 -1.646136  0.393772
  N    -1.808677  2.325170  0.704884
  N    -2.855111 -0.665355  4.119258
  N    -2.581576  2.961369  4.463559
  S    -3.533906 -1.460292  2.784238
  S    -3.339245  2.523705  3.006692
  S    -0.565680 -1.271462 -0.017931
  S    -0.268639  2.681892  0.275267
  S    -1.256021 -0.282728  3.970566
  S    -0.917773  3.287034  4.330945
