16  
    
  C     3.113768  1.580695  3.718208
  C     3.138778  5.121320  3.396496
  C     1.922320  1.106428  3.032553
  C     1.931008  4.712116  2.715834
  N     4.216277  1.842378  2.996280
  N     4.273164  5.179841  2.681849
  N     2.155728  0.846105  1.747075
  N     2.175779  4.471480  1.439959
  N     1.305202  1.666939  5.485367
  N     1.355598  4.973552  5.208656
  S     0.609321  1.147148  4.080942
  S     0.611652  4.492730  3.819673
  S     3.727290  1.307192  1.425295
  S     3.743426  4.821940  1.148549
  S     2.951866  1.794295  5.437778
  S     3.028080  5.261146  5.104455
