16  
    
  C    -4.258591 -2.469207  1.493978
  C    -4.327869  1.546101  2.061853
  C    -5.494882 -2.813364  0.887139
  C    -5.453959  0.920938  1.365402
  N    -3.195915 -2.335148  0.710680
  N    -3.320078  1.744425  1.240410
  N    -5.308521 -3.144135 -0.391186
  N    -5.321896  0.681554  0.090842
  N    -6.083077 -2.577749  3.381668
  N    -6.142255  1.411828  3.820175
  S    -6.783730 -3.155005  2.001207
  S    -6.838055  0.838143  2.349750
  S    -3.752989 -2.779943 -0.786075
  S    -3.778982  1.255342 -0.291944
  S    -4.455573 -2.225762  3.185460
  S    -4.517799  1.942387  3.703711
