16  
    
  C    -2.974394 -1.663266  1.956984
  C    -2.597976  2.104199  2.003194
  C    -4.131106 -2.138804  1.253740
  C    -3.827138  1.734409  1.390173
  N    -1.910500 -1.281910  1.226931
  N    -1.551949  2.154545  1.183766
  N    -3.864471 -2.304301 -0.057167
  N    -3.739646  1.661317  0.068557
  N    -4.747399 -2.238464  3.766590
  N    -4.349418  2.166392  3.912099
  S    -5.436978 -2.617986  2.334867
  S    -5.209666  2.043663  2.454389
  S    -2.324215 -1.744229 -0.329257
  S    -2.132723  1.909642 -0.341674
  S    -3.147623 -1.640945  3.692884
  S    -2.664212  2.380342  3.724204
