16  
    
  C    -4.631461 -2.381075  1.478194
  C    -4.457356  1.295530  1.872769
  C    -5.853713 -2.751112  0.797746
  C    -5.661860  0.829758  1.206102
  N    -3.605653 -1.945771  0.753976
  N    -3.498052  1.687907  1.036375
  N    -5.690613 -2.692983 -0.520382
  N    -5.493495  0.766005 -0.142621
  N    -6.419181 -2.934453  3.269417
  N    -6.104813  0.737197  3.797387
  S    -7.152266 -3.184388  1.818609
  S    -6.846187  0.303315  2.381783
  S    -4.180025 -2.118371 -0.834528
  S    -4.045530  1.341821 -0.524105
  S    -4.917453 -2.302592  3.209722
  S    -4.515741  1.146522  3.724726
