16  
    
  C     1.483298  0.962861  3.277461
  C     1.582166  4.462988  3.387596
  C     0.277469  0.433086  2.685885
  C     0.272148  4.062635  2.932242
  N     2.461277  1.154393  2.394710
  N     2.616912  4.334395  2.514726
  N     0.373879  0.153038  1.354416
  N     0.222880  4.068532  1.586638
  N    -0.312032  0.811644  5.167211
  N    -0.112137  4.694244  5.473397
  S    -1.091154  0.557706  3.765710
  S    -1.039028  4.200177  4.122256
  S     1.887056  0.663843  0.897245
  S     1.756764  4.096741  1.063846
  S     1.353818  1.352476  5.020964
  S     1.560246  4.861619  5.123704
