16  
    
  C     2.207567  1.309119  3.418234
  C     2.264076  4.810975  3.269391
  C     1.047608  0.820465  2.743862
  C     1.068975  4.324233  2.623229
  N     3.226078  1.626289  2.588442
  N     3.314565  4.928611  2.449714
  N     1.208523  0.683329  1.441856
  N     1.105090  4.373530  1.286604
  N     0.480104  0.695348  5.314449
  N     0.646665  4.251940  5.084313
  S    -0.252363  0.490396  3.772704
  S    -0.131525  3.850481  3.742973
  S     2.782160  1.171901  1.102184
  S     2.673870  4.820662  0.943153
  S     2.117261  1.022179  5.124591
  S     2.184128  4.715753  5.002399
