16  
    
  C    -2.895010 -1.956750  2.083953
  C    -3.389734  1.635950  2.077944
  C    -4.218510 -2.111168  1.483104
  C    -4.653590  1.235821  1.467894
  N    -1.944969 -1.757097  1.175925
  N    -2.399761  1.552421  1.205819
  N    -4.250934 -2.293658  0.161875
  N    -4.611923  1.082632  0.140790
  N    -4.595461 -1.999388  4.012511
  N    -5.083553  1.646431  3.965590
  S    -5.520079 -2.198754  2.636760
  S    -5.969133  1.152469  2.662330
  S    -2.687959 -2.026152 -0.323111
  S    -2.987550  1.311297 -0.321687
  S    -3.024228 -1.576601  3.732166
  S    -3.442978  1.735427  3.873639
