16  
    
  C     1.991355  1.134386  2.998108
  C     2.283646  4.384064  3.054071
  C     0.806821  0.589823  2.414118
  C     1.111479  4.023307  2.318931
  N     3.002335  1.292914  2.163420
  N     3.417296  4.427400  2.325698
  N     0.913625  0.224373  1.149210
  N     1.296534  3.714507  1.039524
  N     0.185567  1.111870  4.957071
  N     0.237348  4.405019  4.631869
  S    -0.539596  0.587740  3.459799
  S    -0.360387  3.845138  3.265185
  S     2.463292  0.690962  0.684416
  S     2.885051  3.964341  0.806313
  S     1.842232  1.315786  4.748599
  S     1.862314  4.616851  4.744316
