16  
    
  C     3.222148  1.632835  3.608307
  C     3.097038  5.166843  3.381743
  C     2.013809  1.136764  3.028625
  C     1.997168  4.520647  2.733418
  N     4.261868  1.632012  2.753998
  N     4.172954  5.346360  2.629700
  N     2.096173  0.832920  1.737613
  N     2.165511  4.340873  1.460448
  N     1.474687  1.461182  5.494247
  N     1.264803  4.902995  5.157166
  S     0.704681  1.016518  4.101877
  S     0.658329  4.197316  3.760656
  S     3.680942  1.088626  1.366920
  S     3.698408  4.965099  1.128946
  S     2.993725  2.059597  5.326050
  S     2.859007  5.358938  5.071120
