16  
    
  C    -1.592172 -1.167289  2.113320
  C    -1.754532  2.378219  1.931360
  C    -2.916752 -1.316319  1.487518
  C    -2.966313  2.045758  1.266346
  N    -0.637066 -1.055297  1.210558
  N    -0.702531  2.470986  1.130748
  N    -2.915428 -1.539503  0.176770
  N    -2.843439  1.809811 -0.029879
  N    -3.348847 -1.007751  4.054119
  N    -3.563095  2.154962  3.791391
  S    -4.239646 -1.179922  2.662040
  S    -4.335152  1.919781  2.304214
  S    -1.334985 -1.403362 -0.264139
  S    -1.253982  2.189150 -0.386433
  S    -1.717669 -0.924113  3.817189
  S    -1.887473  2.364335  3.694140
