16  
    
  C    -0.179407  0.103759  2.554098
  C    -0.104073  3.750500  2.423781
  C    -1.401883 -0.485134  2.038585
  C    -1.155065  2.942459  1.965929
  N     0.735115  0.271593  1.642878
  N     0.997291  3.832375  1.649141
  N    -1.337360 -0.780999  0.769706
  N    -1.004602  2.630399  0.651989
  N    -1.618334 -0.393699  4.572498
  N    -1.777371  3.472778  4.373879
  S    -2.545438 -0.761588  3.237433
  S    -2.550019  2.837735  3.085580
  S     0.174352 -0.337390  0.241767
  S     0.483693  3.191026  0.215411
  S    -0.031361  0.101779  4.283733
  S    -0.197834  4.047474  4.121342
