16  
    
  C     2.751555  1.123414  3.571569
  C     2.935583  4.949446  3.666075
  C     1.581663  0.744376  2.839946
  C     1.617242  4.881053  3.050690
  N     3.731917  1.570823  2.765751
  N     3.935287  4.841787  2.788391
  N     1.724584  0.795541  1.524396
  N     1.631369  4.861504  1.721118
  N     0.772427  0.837730  5.266934
  N     1.264719  5.475760  5.469062
  S     0.104404  0.455026  3.789747
  S     0.310292  5.224243  4.145249
  S     3.280172  1.384963  1.247927
  S     3.240279  4.874450  1.330309
  S     2.411800  1.052112  5.249094
  S     2.910331  5.307600  5.330874
