16  
    
  C     1.421870  0.899104  3.290307
  C     1.232278  4.284492  3.094366
  C     0.148986  0.373948  2.850882
  C    -0.038793  4.099485  2.463110
  N     2.372535  0.909110  2.390638
  N     2.219954  4.625114  2.231639
  N     0.207588 -0.062803  1.607569
  N     0.019258  4.001945  1.113677
  N    -0.270411  0.960518  5.271316
  N    -0.577560  4.175372  4.961738
  S    -1.166048  0.449476  4.016362
  S    -1.304830  3.702729  3.589653
  S     1.710482  0.245214  0.997010
  S     1.538158  4.425872  0.741130
  S     1.340422  1.174891  5.040001
  S     1.082384  4.540892  4.900184
