16  
    
  C    -1.848545 -1.095519  2.344660
  C    -1.959378  2.513092  2.627352
  C    -3.122127 -1.426178  1.781865
  C    -3.077279  1.967514  1.943345
  N    -0.911294 -0.782759  1.463530
  N    -0.865937  2.720698  1.865620
  N    -2.996948 -1.710258  0.503430
  N    -2.878130  1.795091  0.633687
  N    -3.562067 -1.154764  4.357876
  N    -3.725506  2.095628  4.402749
  S    -4.420335 -1.470885  2.924741
  S    -4.468969  1.817165  2.929788
  S    -1.462160 -1.295983 -0.006294
  S    -1.368342  2.352401  0.303100
  S    -1.933730 -0.847530  4.101634
  S    -2.104435  2.400227  4.388056
