16  
    
  C    -1.333104 -0.974245  2.196075
  C    -1.527261  3.023500  2.000203
  C    -2.558541 -1.312412  1.461617
  C    -2.576245  2.194383  1.381327
  N    -0.292139 -0.754757  1.463388
  N    -0.446213  3.248690  1.217796
  N    -2.378543 -1.383764  0.165654
  N    -2.446613  2.106780  0.055018
  N    -3.141741 -1.226774  3.956469
  N    -3.326518  2.507591  3.839762
  S    -3.847553 -1.653904  2.530836
  S    -3.867118  1.752864  2.434076
  S    -0.795705 -1.004244 -0.086257
  S    -0.932635  2.724534 -0.309647
  S    -1.550448 -0.756819  3.951592
  S    -1.905500  3.352652  3.632007
