16  
    
  C    -2.551107 -1.115944  2.175686
  C    -2.678246  2.517805  2.341265
  C    -3.674557 -1.768234  1.520242
  C    -3.807729  1.933871  1.740439
  N    -1.449995 -0.958827  1.390330
  N    -1.741909  3.030322  1.545935
  N    -3.556658 -1.803982  0.176448
  N    -3.655385  1.779447  0.424611
  N    -4.237415 -1.818880  4.016246
  N    -4.364329  2.025092  4.170157
  S    -5.046223 -2.041825  2.618191
  S    -4.994505  1.383491  2.811226
  S    -1.965221 -1.357423 -0.165031
  S    -2.265910  2.544074 -0.005459
  S    -2.788894 -0.993075  3.907808
  S    -2.845510  2.654021  4.101712
