16  
    
  C     2.330238  0.931131  3.528572
  C     2.073094  4.952494  3.221139
  C     1.039476  0.607526  2.989318
  C     0.887843  4.612253  2.437600
  N     3.277289  0.986921  2.610732
  N     3.133040  5.248071  2.473667
  N     0.987080  0.370565  1.704478
  N     1.064260  4.467960  1.129193
  N     0.635760  0.875569  5.403832
  N    -0.002323  4.630147  4.884850
  S    -0.282451  0.684615  4.085770
  S    -0.546863  4.152678  3.343404
  S     2.577859  0.652907  1.158146
  S     2.656542  4.915350  0.890839
  S     2.231597  1.143943  5.247523
  S     1.592614  5.268362  4.806041
