16  
    
  C    -2.994122 -1.871069  2.082824
  C    -3.357405  1.525675  2.057044
  C    -4.285319 -2.120759  1.481111
  C    -4.674309  1.329749  1.478704
  N    -1.929182 -1.903920  1.242190
  N    -2.337767  1.717434  1.218486
  N    -4.236161 -2.088790  0.148857
  N    -4.644953  1.130322  0.160144
  N    -4.620254 -1.973722  4.048830
  N    -5.033198  1.639831  3.990287
  S    -5.552412 -2.144812  2.693869
  S    -5.909353  1.121025  2.662774
  S    -2.624557 -2.004240 -0.266976
  S    -3.094833  1.422991 -0.289459
  S    -3.011362 -1.596344  3.854098
  S    -3.358225  1.747190  3.790373
