16  
    
  C    -2.875952 -1.551196  1.992331
  C    -2.412234  1.970377  2.060371
  C    -4.093290 -2.035456  1.413744
  C    -3.706137  1.810359  1.425868
  N    -1.874057 -1.370352  1.162411
  N    -1.431979  1.871116  1.174991
  N    -4.049309 -2.143477  0.103048
  N    -3.689666  1.658012  0.086287
  N    -4.434434 -2.035549  3.983916
  N    -4.076317  2.244774  4.001691
  S    -5.336303 -2.497043  2.603401
  S    -4.953574  2.121340  2.610138
  S    -2.556780 -1.662991 -0.334972
  S    -2.076994  1.675297 -0.333829
  S    -2.860358 -1.578356  3.697385
  S    -2.424092  2.383514  3.741966
