16  
    
  C    -4.000700 -2.126749  1.697790
  C    -4.009127  1.514161  1.711000
  C    -5.320832 -2.380451  1.157690
  C    -5.291538  1.296806  1.019236
  N    -2.943307 -2.083911  0.851494
  N    -2.982766  1.453191  0.883537
  N    -5.255280 -2.421716 -0.163773
  N    -5.171253  1.111485 -0.286209
  N    -5.724501 -1.788074  3.594378
  N    -5.758127  1.597188  3.464651
  S    -6.655155 -2.282376  2.280053
  S    -6.629443  1.337435  2.096766
  S    -3.699480 -2.250394 -0.638903
  S    -3.584614  1.149669 -0.611136
  S    -4.084145 -1.752891  3.429659
  S    -4.082154  1.668096  3.404547
