16  
    
  C    -2.523089 -1.148039  2.168639
  C    -2.729466  2.630595  2.388167
  C    -3.637039 -1.695139  1.491723
  C    -3.803545  1.896803  1.696940
  N    -1.472437 -0.947045  1.399594
  N    -1.792505  3.028888  1.549144
  N    -3.490914 -1.846028  0.181336
  N    -3.715500  1.807331  0.391588
  N    -4.198632 -1.803382  4.063203
  N    -4.374369  2.041878  4.222929
  S    -5.005092 -2.074178  2.641896
  S    -4.980851  1.374113  2.826521
  S    -1.903169 -1.294677 -0.158742
  S    -2.260135  2.510037  0.017497
  S    -2.765434 -0.967766  3.848711
  S    -2.840694  2.697972  4.092720
