16  
    
  C    -4.313972 -2.494354  1.533665
  C    -4.447711  1.610056  1.935194
  C    -5.521384 -2.848284  0.795053
  C    -5.615992  1.034674  1.345690
  N    -3.289031 -2.213026  0.737632
  N    -3.417521  1.771988  1.118354
  N    -5.308973 -2.948876 -0.540182
  N    -5.485838  0.825147  0.059502
  N    -6.238262 -2.779390  3.279090
  N    -6.019349  1.120665  3.933225
  S    -6.857926 -3.319846  1.832329
  S    -6.823149  0.655540  2.531302
  S    -3.752690 -2.530068 -0.852828
  S    -3.941624  1.244393 -0.406662
  S    -4.622993 -2.304418  3.254194
  S    -4.423595  1.797807  3.706085
