16  
    
  C    -5.754303 -2.767226  1.199082
  C    -5.788059  0.836273  1.552786
  C    -6.869866 -3.499411  0.663461
  C    -7.001297  0.350218  0.888380
  N    -4.856468 -2.483956  0.243517
  N    -4.748748  1.187288  0.803828
  N    -6.920705 -3.580410 -0.662488
  N    -6.821788  0.176475 -0.422639
  N    -7.433920 -3.131917  3.166947
  N    -7.667938  0.706969  3.387278
  S    -8.128089 -3.774447  1.794995
  S    -8.269970  0.002817  1.986271
  S    -5.514405 -2.949430 -1.179985
  S    -5.245917  0.694293 -0.751287
  S    -5.819734 -2.735706  2.937666
  S    -5.976139  1.022924  3.341976
