16  
    
  C    -5.612311 -2.795908  1.587733
  C    -5.504862  0.988170  1.355649
  C    -6.816599 -3.064058  0.836798
  C    -6.683206  0.386062  0.802283
  N    -4.562531 -2.592421  0.815977
  N    -4.421148  1.177698  0.574941
  N    -6.572779 -3.284137 -0.450675
  N    -6.608813  0.214423 -0.541416
  N    -7.422856 -3.167672  3.291622
  N    -7.275650  0.613218  3.231942
  S    -8.206913 -3.243202  1.847354
  S    -8.001546  0.187483  1.865315
  S    -5.002735 -2.886301 -0.697779
  S    -5.080249  0.750479 -0.922361
  S    -5.839878 -2.561718  3.263171
  S    -5.707534  1.099506  3.099887
