16  
    
  C    -4.144077 -2.055654  1.859516
  C    -4.144108  1.405905  1.745151
  C    -5.502029 -2.163459  1.349773
  C    -5.415203  1.177934  1.075749
  N    -3.215767 -2.033274  0.926338
  N    -3.036083  1.273783  1.022057
  N    -5.575265 -2.475301  0.037927
  N    -5.207272  1.164700 -0.239940
  N    -5.654128 -2.222992  3.941162
  N    -6.083657  1.541571  3.508076
  S    -6.659820 -2.281401  2.619899
  S    -6.842672  1.267147  2.056235
  S    -4.032469 -2.452211 -0.453932
  S    -3.620036  1.154504 -0.531856
  S    -4.074399 -2.036709  3.574253
  S    -4.398398  1.557605  3.481378
