16  
    
  C    -3.032901 -1.248982  2.160349
  C    -3.141019  1.709407  2.044504
  C    -4.238534 -1.767618  1.554340
  C    -4.367512  1.408018  1.336139
  N    -1.971651 -1.231377  1.363193
  N    -2.141821  1.977683  1.220148
  N    -4.145747 -1.890850  0.224955
  N    -4.266204  1.339953  0.040705
  N    -4.795771 -1.644817  4.051833
  N    -5.091465  1.594019  3.771843
  S    -5.542422 -1.954012  2.619843
  S    -5.774806  1.253288  2.264937
  S    -2.575411 -1.564768 -0.203743
  S    -2.689733  1.725150 -0.310708
  S    -3.240671 -1.100792  3.895448
  S    -3.432587  1.951042  3.683000
