16  
    
  C    -2.982009 -1.339048  2.119428
  C    -3.204655  1.815188  1.974136
  C    -4.232225 -1.681538  1.484005
  C    -4.383896  1.379002  1.268647
  N    -1.920190 -1.165719  1.308369
  N    -2.057437  1.901354  1.267828
  N    -4.111996 -1.917690  0.187406
  N    -4.204528  1.358192 -0.058933
  N    -4.768084 -1.682848  4.038940
  N    -5.075313  1.628326  3.703559
  S    -5.547062 -1.992190  2.638031
  S    -5.806034  1.239429  2.223317
  S    -2.553156 -1.561568 -0.219465
  S    -2.623779  1.682057 -0.324209
  S    -3.212039 -1.071109  3.833807
  S    -3.430902  1.983565  3.717166
