16  
    
  C     1.113604  0.222424  3.047351
  C     0.419258  3.789522  3.012813
  C    -0.067267 -0.063529  2.352416
  C    -0.503830  3.065453  2.169099
  N     2.205348  0.421209  2.313118
  N     1.560420  4.159702  2.452376
  N     0.108805 -0.212783  1.045009
  N    -0.174648  2.997087  0.888880
  N    -0.747925 -0.058967  4.733319
  N    -1.447030  3.094255  4.554098
  S    -1.461462 -0.294720  3.317967
  S    -1.845634  2.526144  3.091052
  S     1.676932  0.075995  0.744490
  S     1.314608  3.815562  0.810208
  S     0.856418  0.363248  4.721242
  S     0.102326  3.819756  4.741517
