16  
    
  C    -3.033461 -1.670506  2.324778
  C    -3.351068  1.979783  2.012080
  C    -4.284858 -1.807913  1.591166
  C    -4.575418  1.412715  1.478890
  N    -1.993071 -1.470579  1.492142
  N    -2.379457  2.164826  1.138738
  N    -4.206064 -2.063005  0.274302
  N    -4.615957  1.381249  0.158872
  N    -4.854522 -1.754385  4.150657
  N    -4.880905  1.382810  3.967904
  S    -5.652846 -1.774953  2.672427
  S    -5.755834  1.060205  2.643075
  S    -2.598218 -1.772951 -0.076741
  S    -3.075832  1.751891 -0.311125
  S    -3.174516 -1.567761  4.061959
  S    -3.326759  1.867525  3.705325
