16  
    
  C     2.067372  0.807790  3.114941
  C     2.156017  4.436394  3.026257
  C     0.791973  0.641769  2.519621
  C     0.960636  3.964414  2.388535
  N     3.113388  0.580989  2.306339
  N     3.144448  4.703815  2.216176
  N     0.804296  0.367758  1.217272
  N     1.105429  3.600768  1.134362
  N     0.366715  1.083802  4.946755
  N     0.229795  4.476230  4.840490
  S    -0.509181  0.567980  3.615213
  S    -0.433265  3.964292  3.382956
  S     2.445214  0.220034  0.812304
  S     2.730154  4.009429  0.728524
  S     1.948694  1.077857  4.804963
  S     1.897196  4.784377  4.691697
