16  
    
  C     0.034013  0.032728  2.632513
  C     0.031540  3.646974  2.593947
  C    -1.142974 -0.606324  2.142530
  C    -1.093871  2.858084  1.988778
  N     1.017197  0.188265  1.734803
  N     1.049091  3.833013  1.747533
  N    -1.138667 -0.659962  0.819414
  N    -0.973222  2.749989  0.682035
  N    -1.614680 -0.390163  4.650525
  N    -1.812620  3.381625  4.388902
  S    -2.451588 -0.884292  3.295280
  S    -2.376222  2.610495  3.097118
  S     0.363357 -0.188007  0.230497
  S     0.556096  3.165510  0.314483
  S    -0.162907  0.361397  4.327336
  S    -0.269880  4.070025  4.276181
