16  
    
  C     1.054592  0.216793  3.010573
  C     0.507252  3.774919  2.900809
  C    -0.169879 -0.084796  2.236199
  C    -0.502577  3.075307  2.153919
  N     2.090645  0.553177  2.226325
  N     1.610736  4.142346  2.206591
  N     0.100327 -0.127156  0.908134
  N    -0.227769  2.888178  0.870999
  N    -0.790548 -0.230445  4.738030
  N    -1.480414  3.157708  4.484405
  S    -1.557817 -0.362874  3.299492
  S    -1.989890  2.605964  3.048550
  S     1.640633  0.367651  0.588336
  S     1.230092  3.653679  0.595850
  S     0.807093  0.216184  4.764516
  S     0.106462  3.740369  4.582351
