16  
    
  C     1.137268  0.227507  3.011137
  C     0.597991  3.738815  3.098974
  C    -0.019131 -0.227312  2.336763
  C    -0.484164  3.192377  2.318615
  N     2.229278  0.284160  2.228880
  N     1.648657  4.189907  2.404153
  N     0.113443 -0.371711  0.993317
  N    -0.125368  3.145003  1.048707
  N    -0.722001 -0.001639  4.891645
  N    -1.355505  3.035269  4.696968
  S    -1.471717 -0.322288  3.387216
  S    -1.899488  2.586040  3.181853
  S     1.732212 -0.025244  0.681748
  S     1.309658  3.865928  0.852430
  S     0.911713  0.507626  4.816155
  S     0.107420  3.774077  4.761079
