16  
    
  C    -1.622342 -1.214374  2.353291
  C    -1.814171  2.384484  2.395319
  C    -2.976832 -1.307562  1.824042
  C    -3.017492  1.843062  1.768012
  N    -0.631363 -1.119851  1.453012
  N    -0.749819  2.599335  1.605974
  N    -2.981885 -1.491601  0.500214
  N    -2.859816  1.746093  0.462662
  N    -3.326784 -1.018263  4.327243
  N    -3.658943  2.153161  4.210566
  S    -4.219884 -1.333399  2.970120
  S    -4.371810  1.695438  2.807434
  S    -1.434688 -1.285966 -0.019317
  S    -1.314418  2.229564  0.051628
  S    -1.670393 -0.749196  4.009738
  S    -2.060087  2.594396  4.122584
