16  
    
  C    -1.712368 -1.128870  2.556845
  C    -1.838657  2.520043  2.452002
  C    -3.001938 -1.344023  1.856854
  C    -3.103632  2.263805  1.791674
  N    -0.664866 -1.014408  1.766216
  N    -0.778097  2.596887  1.650284
  N    -2.802056 -1.560635  0.581801
  N    -2.990839  2.349908  0.456063
  N    -3.545993 -1.485039  4.445071
  N    -3.644670  2.325728  4.301711
  S    -4.268624 -1.798640  2.956801
  S    -4.412095  1.997154  2.880533
  S    -1.181546 -1.257637  0.223313
  S    -1.389685  2.372391  0.133155
  S    -1.953691 -0.906500  4.298203
  S    -1.991635  2.522527  4.184838
