16  
    
  C     0.714876 -0.270617  2.753953
  C     0.347861  3.567306  2.910085
  C    -0.606748 -0.416252  2.166476
  C    -0.852143  3.203580  2.248331
  N     1.705317 -0.081277  1.906038
  N     1.408899  3.817880  2.163218
  N    -0.614145 -0.387216  0.834473
  N    -0.822736  3.528370  0.949853
  N    -0.984954 -0.402420  4.788433
  N    -1.411729  3.119016  4.733278
  S    -1.832463 -0.649256  3.400520
  S    -2.216245  2.878368  3.342662
  S     0.995101 -0.108260  0.390690
  S     0.835240  3.813071  0.597368
  S     0.629231 -0.049846  4.537702
  S     0.240044  3.406714  4.620114
