16  
    
  C    -4.253052 -1.955609  1.805340
  C    -4.164828  1.578062  1.846660
  C    -5.455502 -2.510957  1.206132
  C    -5.347763  0.915183  1.423168
  N    -3.199479 -1.898835  0.965208
  N    -3.181045  1.744226  1.006659
  N    -5.310563 -2.777232 -0.066159
  N    -5.300943  0.549910  0.188270
  N    -5.993483 -2.107572  3.718529
  N    -5.896154  1.776400  3.704788
  S    -6.783091 -2.324977  2.294284
  S    -6.662316  0.945616  2.511912
  S    -3.748100 -2.461924 -0.523604
  S    -3.829452  1.060968 -0.422980
  S    -4.500787 -1.464983  3.519380
  S    -4.298236  1.998032  3.530956
