16  
    
  C    -4.703504 -2.665593  1.520155
  C    -4.680494  0.818340  1.433604
  C    -6.016445 -2.897598  0.972830
  C    -5.946546  0.638977  0.735732
  N    -3.737426 -2.561709  0.632816
  N    -3.631230  0.955365  0.663144
  N    -6.020599 -3.134727 -0.341407
  N    -5.885294  0.662221 -0.597019
  N    -6.340652 -2.542250  3.483683
  N    -6.505326  0.902347  3.167542
  S    -7.231628 -3.025100  2.165001
  S    -7.271675  0.580338  1.752729
  S    -4.423755 -3.002772 -0.789724
  S    -4.209118  1.007793 -0.900954
  S    -4.733888 -2.475994  3.276529
  S    -4.910457  1.124149  3.142760
