16  
    
  C     1.773205  0.514294  3.102219
  C     2.041134  4.303163  3.375628
  C     0.563600  0.194646  2.444433
  C     0.819061  4.017440  2.709318
  N     2.787995  0.736355  2.263166
  N     3.000331  4.679884  2.534282
  N     0.610968  0.221443  1.108835
  N     0.807745  4.134457  1.400618
  N     0.037977  0.179603  4.960138
  N     0.261331  3.998951  5.212450
  S    -0.739304 -0.155806  3.475590
  S    -0.609600  3.682407  3.806525
  S     2.212853  0.583876  0.718155
  S     2.342008  4.531877  1.012600
  S     1.631701  0.515492  4.851298
  S     1.832089  4.337358  5.100815
