16  
    
  C    -2.746968 -1.520685  2.156554
  C    -2.433537  2.355256  2.169759
  C    -3.961783 -2.026535  1.512156
  C    -3.738707  2.092616  1.535066
  N    -1.742304 -1.354294  1.283679
  N    -1.406008  2.445466  1.340520
  N    -3.969025 -1.992187  0.161660
  N    -3.576175  1.850597  0.246671
  N    -4.396415 -1.518979  4.035144
  N    -4.190939  1.887707  4.046117
  S    -5.226008 -2.110692  2.702750
  S    -5.059009  1.788225  2.668488
  S    -2.408041 -1.629336 -0.219636
  S    -2.000671  2.085345 -0.200504
  S    -2.777334 -1.411782  3.871124
  S    -2.621068  2.352570  3.906705
