16  
    
  C     1.388078  0.554636  2.979118
  C     0.935692  4.123752  2.540399
  C     0.197081  0.233618  2.247035
  C    -0.163297  3.443072  1.882406
  N     2.549787  0.452680  2.312602
  N     2.107413  4.216167  1.849212
  N     0.424972 -0.158687  0.969113
  N     0.009155  3.266740  0.572122
  N    -0.527242  0.742651  4.745873
  N    -0.996224  3.665075  4.296583
  S    -1.180265  0.327699  3.249135
  S    -1.630031  3.226250  2.865881
  S     2.069016 -0.029136  0.774871
  S     1.581390  3.808268  0.256138
  S     1.149302  0.976156  4.635038
  S     0.612583  4.096756  4.257595
