16  
    
  C    -3.662738 -2.491526  1.818065
  C    -3.459271  1.709993  1.760197
  C    -4.857253 -2.944754  1.138350
  C    -4.537300  1.003513  1.196267
  N    -2.579707 -2.393512  1.024339
  N    -2.508751  2.043736  0.865927
  N    -4.727173 -2.950651 -0.200421
  N    -4.330187  0.694487 -0.076426
  N    -5.413335 -2.755486  3.626264
  N    -5.302135  1.519442  3.635344
  S    -6.176026 -3.129940  2.155516
  S    -5.923587  0.760592  2.301110
  S    -3.167115 -2.596367 -0.504932
  S    -2.887320  1.395352 -0.576026
  S    -3.779622 -2.446604  3.575132
  S    -3.752583  2.125329  3.490660
