16  
    
  C    -4.661985 -2.490259  1.692673
  C    -4.830631  1.163561  1.576355
  C    -5.923177 -2.951764  1.182107
  C    -5.982687  0.563375  0.964939
  N    -3.754188 -2.248284  0.780011
  N    -3.831306  1.427867  0.790469
  N    -5.913581 -3.134691 -0.130984
  N    -5.774327  0.270263 -0.306979
  N    -6.330493 -2.707614  3.640771
  N    -6.611745  0.832915  3.372079
  S    -7.241946 -3.078777  2.327233
  S    -7.301549  0.165002  2.022018
  S    -4.486754 -2.595303 -0.675113
  S    -4.235246  0.878242 -0.741454
  S    -4.789273 -2.142722  3.392533
  S    -5.086080  1.377563  3.332782
