16  
    
  C     3.263314  1.526218  3.738550
  C     3.253958  4.993179  3.461876
  C     2.003034  1.298361  3.068138
  C     2.022910  4.599404  2.812661
  N     4.333149  1.585838  2.945154
  N     4.307430  5.041971  2.633301
  N     2.059283  1.133923  1.750715
  N     2.114740  4.536853  1.469701
  N     1.418170  1.375252  5.556016
  N     1.313361  5.162177  5.253082
  S     0.585439  1.216799  4.141635
  S     0.638153  4.719381  3.858925
  S     3.643718  1.340482  1.322476
  S     3.675536  4.789345  1.090559
  S     3.029645  1.745030  5.438013
  S     2.957912  5.215173  5.197344
