16  
    
  C     1.561005  0.711925  2.871973
  C     0.838952  4.143087  2.475909
  C     0.314703  0.368809  2.267689
  C    -0.296932  3.437323  1.884878
  N     2.538512  0.907493  1.967939
  N     1.823974  4.292817  1.613329
  N     0.370734  0.281864  0.921910
  N    -0.082319  3.152914  0.598522
  N    -0.142383  0.304389  4.794825
  N    -0.862383  3.793888  4.338942
  S    -0.975854 -0.041251  3.335450
  S    -1.598049  3.121654  3.004287
  S     1.905921  0.671509  0.470049
  S     1.416806  3.665599  0.183149
  S     1.418440  0.836750  4.607414
  S     0.691800  4.224799  4.210324
