16  
    
  C    -2.177284 -0.788554  2.285511
  C    -2.154425  2.442934  1.935923
  C    -3.381552 -1.312600  1.604274
  C    -3.395093  2.007801  1.400071
  N    -1.097799 -0.791940  1.527721
  N    -1.147054  2.591448  1.053379
  N    -3.183004 -1.649328  0.330816
  N    -3.356890  1.763618  0.094386
  N    -3.897643 -1.200191  4.151141
  N    -3.840932  2.352428  3.876970
  S    -4.744986 -1.274389  2.729734
  S    -4.689592  1.954742  2.542651
  S    -1.576181 -1.324775 -0.004254
  S    -1.787764  2.051452 -0.384899
  S    -2.306484 -0.743048  4.017583
  S    -2.224212  2.584963  3.693264
