16  
    
  C     1.487379  1.045462  3.212184
  C     1.891727  4.498581  3.378191
  C     0.305338  0.599550  2.514391
  C     0.594169  4.166963  2.800552
  N     2.565428  1.176693  2.425345
  N     2.833214  4.711237  2.477963
  N     0.432798  0.447777  1.172112
  N     0.704828  3.682833  1.568577
  N    -0.319048  0.800025  5.055971
  N     0.095609  4.551000  5.191051
  S    -0.981911  0.152405  3.636307
  S    -0.795367  4.230692  3.870422
  S     2.075733  0.757914  0.853967
  S     2.302164  4.049377  0.978136
  S     1.318998  1.246945  4.978460
  S     1.717208  4.855463  5.037275
