16  
    
  C    -4.891073 -2.657720  1.964693
  C    -5.380792  1.032981  1.720312
  C    -6.155778 -2.982255  1.328568
  C    -6.635414  0.780735  1.062651
  N    -3.832847 -2.562242  1.136081
  N    -4.305378  1.050500  0.932854
  N    -6.048767 -3.250761  0.026811
  N    -6.514508  0.572062 -0.268269
  N    -6.768126 -2.692827  3.796291
  N    -7.118375  1.001703  3.516166
  S    -7.592847 -2.948376  2.355436
  S    -7.989104  0.642613  2.151417
  S    -4.422550 -3.022811 -0.403152
  S    -4.929285  0.805794 -0.595619
  S    -5.210353 -2.213467  3.648993
  S    -5.530577  1.331901  3.458046
