16  
    
  C    -1.963307 -1.052625  2.219754
  C    -2.307007  2.380521  1.968820
  C    -3.106236 -1.663016  1.558222
  C    -3.651354  2.081287  1.415562
  N    -0.951790 -0.944287  1.378266
  N    -1.374055  2.546202  1.051268
  N    -3.011676 -1.726400  0.222555
  N    -3.607640  1.832288  0.105260
  N    -3.832582 -1.083032  3.986499
  N    -3.987009  2.405516  3.920923
  S    -4.517251 -1.711812  2.618156
  S    -4.924077  2.018001  2.600199
  S    -1.473875 -1.224002 -0.174483
  S    -2.064890  2.154233 -0.383529
  S    -2.218645 -0.823958  3.963540
  S    -2.444153  2.884053  3.618651
