16  
    
  C    -1.374493 -0.582491  1.837683
  C    -1.220312  3.372603  2.126626
  C    -2.574374 -1.247081  1.478992
  C    -2.384890  2.766843  1.592764
  N    -0.518825 -0.535922  0.823069
  N    -0.307472  3.647321  1.204902
  N    -2.774389 -1.423314  0.155023
  N    -2.379682  2.547542  0.277540
  N    -2.801840 -0.543555  4.007666
  N    -2.760370  2.916244  4.096059
  S    -3.698908 -1.349794  2.831642
  S    -3.569855  2.316738  2.791188
  S    -1.321430 -1.029113 -0.529662
  S    -0.979430  3.250307 -0.258908
  S    -1.249542 -0.149832  3.544481
  S    -1.249233  3.536872  3.839243
