16  
    
  C    -2.407537 -1.088170  2.185149
  C    -2.718307  2.649358  2.358405
  C    -3.450804 -1.873336  1.490089
  C    -3.886474  2.039504  1.732112
  N    -1.410285 -0.785879  1.360545
  N    -1.756081  3.007598  1.509452
  N    -3.388277 -1.862232  0.161066
  N    -3.698690  1.761536  0.423302
  N    -4.102760 -1.618548  3.956507
  N    -4.386995  2.129478  4.215751
  S    -4.763291 -2.238244  2.580801
  S    -5.059427  1.374882  2.922945
  S    -1.869804 -1.216495 -0.163862
  S    -2.252832  2.427709 -0.032720
  S    -2.567149 -0.932818  3.878102
  S    -2.888516  2.794506  4.036268
