16  
    
  C     0.719509 -0.301050  2.779564
  C     0.367765  3.536869  2.911475
  C    -0.608490 -0.366120  2.189658
  C    -0.893212  3.270376  2.251992
  N     1.698638 -0.096306  1.915776
  N     1.439071  3.788302  2.148359
  N    -0.610443 -0.362550  0.857648
  N    -0.805023  3.528270  0.955263
  N    -0.950332 -0.381425  4.777363
  N    -1.405318  3.114190  4.749956
  S    -1.809664 -0.649918  3.382540
  S    -2.202202  2.890236  3.350726
  S     1.000522 -0.106992  0.395288
  S     0.820739  3.840701  0.607621
  S     0.664177 -0.050584  4.531903
  S     0.261861  3.404699  4.637555
