16  
    
  C     3.134943  1.727998  3.236898
  C     3.097502  5.109325  3.384956
  C     1.859521  1.497745  2.608643
  C     1.833915  4.872851  2.712236
  N     4.245113  1.531847  2.524261
  N     4.173693  5.057992  2.594780
  N     1.987603  1.156368  1.335115
  N     2.015567  4.595638  1.439415
  N     1.501215  1.543106  5.210832
  N     1.283541  5.014227  5.263493
  S     0.620855  1.564009  3.806863
  S     0.500301  4.549422  3.859973
  S     3.589653  1.124858  0.972980
  S     3.595962  4.783911  1.038846
  S     3.140094  1.962848  4.979873
  S     2.953387  5.225516  5.131876
