16  
    
  C    -1.405482 -0.643817  1.815947
  C    -1.289370  3.352079  2.052400
  C    -2.653364 -1.233242  1.467311
  C    -2.479468  2.673852  1.510334
  N    -0.504779 -0.612840  0.827446
  N    -0.320402  3.651468  1.211165
  N    -2.772852 -1.398586  0.113191
  N    -2.405516  2.654374  0.202470
  N    -2.676010 -0.811921  4.026794
  N    -2.901271  2.866530  4.028994
  S    -3.650474 -1.489618  2.842379
  S    -3.628458  2.208171  2.684498
  S    -1.296983 -1.107500 -0.517479
  S    -0.934583  3.257158 -0.297497
  S    -1.186971 -0.273028  3.536801
  S    -1.454937  3.654553  3.768070
