16  
    
  C    -3.027647 -1.252258  2.152290
  C    -3.146284  1.716865  2.036379
  C    -4.240944 -1.760884  1.547092
  C    -4.370190  1.403432  1.333435
  N    -1.962920 -1.226324  1.360416
  N    -2.133451  1.970229  1.226561
  N    -4.143037 -1.892148  0.224103
  N    -4.261682  1.342181  0.034524
  N    -4.797234 -1.650209  4.050482
  N    -5.091134  1.596237  3.766839
  S    -5.540935 -1.957364  2.622880
  S    -5.777863  1.252710  2.257965
  S    -2.574387 -1.564219 -0.206386
  S    -2.683805  1.721605 -0.311326
  S    -3.239342 -1.097168  3.889759
  S    -3.430578  1.954609  3.685345
