16  
    
  C     0.742051 -0.240398  2.821088
  C     0.425542  3.444470  2.947098
  C    -0.544977 -0.315651  2.224904
  C    -0.882802  3.497718  2.277681
  N     1.700183 -0.148381  1.930835
  N     1.444406  3.703414  2.131696
  N    -0.578202 -0.265115  0.910180
  N    -0.773977  3.515064  0.928525
  N    -0.860960 -0.324625  4.729456
  N    -1.315953  3.096944  4.830168
  S    -1.783769 -0.643630  3.353416
  S    -2.167692  2.934167  3.349607
  S     1.004090 -0.113953  0.429047
  S     0.767532  3.908176  0.628039
  S     0.761758 -0.056183  4.514290
  S     0.303452  3.397996  4.688987
