16  
    
  C    -4.696184 -2.221125  1.493912
  C    -4.412673  1.461843  1.940461
  C    -5.816373 -2.729091  0.719622
  C    -5.583765  0.800636  1.336632
  N    -3.652949 -1.847378  0.766553
  N    -3.477087  1.815665  1.043036
  N    -5.623907 -2.699626 -0.589692
  N    -5.590109  0.765178  0.007156
  N    -6.446312 -2.897728  3.212487
  N    -6.069931  0.855791  3.873156
  S    -7.110291 -3.295093  1.708776
  S    -6.830200  0.250406  2.455359
  S    -4.039319 -2.128292 -0.790697
  S    -4.047579  1.385394 -0.456123
  S    -4.812035 -2.351257  3.251960
  S    -4.460234  1.271663  3.627913
