16  
    
  C     0.884908  0.411503  2.952983
  C     0.508549  3.662712  2.932285
  C    -0.369471 -0.083252  2.337970
  C    -0.856946  3.539685  2.384110
  N     1.963604  0.373479  2.163840
  N     1.475402  3.714217  2.041402
  N    -0.280123 -0.224755  1.035296
  N    -0.870055  3.528274  1.084076
  N    -0.887451  0.264141  4.773633
  N    -1.070792  3.580439  4.976532
  S    -1.729391 -0.166176  3.391242
  S    -2.023503  3.289890  3.576665
  S     1.325930 -0.013266  0.689997
  S     0.755816  3.728832  0.553994
  S     0.717557  0.635052  4.609184
  S     0.524811  3.775578  4.665601
