16  
    
  C     3.636953  1.962695  3.555266
  C     3.236191  5.381731  3.454912
  C     2.367679  1.528915  2.956088
  C     2.060691  4.803695  2.881452
  N     4.700683  2.168788  2.809191
  N     4.272614  5.514320  2.674632
  N     2.527634  1.316092  1.653504
  N     2.169281  4.674990  1.553058
  N     1.949522  1.442560  5.518057
  N     1.614521  5.005624  5.386442
  S     1.053965  1.248937  4.111676
  S     0.768399  4.478598  3.997358
  S     4.151528  1.713136  1.279084
  S     3.728947  5.170009  1.164095
  S     3.460019  2.170494  5.293404
  S     3.206487  5.357471  5.233374
