16  
    
  C     2.744104  1.365386  3.663153
  C     2.958411  5.130829  3.578588
  C     1.537957  0.844216  3.090248
  C     1.739098  4.917697  2.851565
  N     3.710523  1.608696  2.772953
  N     3.981664  5.559606  2.814922
  N     1.632211  0.673892  1.787423
  N     1.914638  4.863495  1.515147
  N     1.042736  1.352960  5.520876
  N     1.077186  4.815676  5.392767
  S     0.207053  0.732478  4.223907
  S     0.318455  4.643274  3.929864
  S     3.171188  1.190192  1.362918
  S     3.524190  5.247653  1.241932
  S     2.680761  1.562805  5.323984
  S     2.676624  5.355650  5.280775
