16  
    
  C    -3.139375 -1.866749  1.869664
  C    -3.597253  1.690124  2.078557
  C    -4.369482 -2.317672  1.267988
  C    -4.652607  1.067471  1.401126
  N    -2.144785 -1.727822  1.025863
  N    -2.507659  1.825898  1.315578
  N    -4.238915 -2.687720 -0.010224
  N    -4.416187  0.800987  0.114097
  N    -4.842112 -2.040922  3.768929
  N    -5.511779  1.459991  3.813815
  S    -5.558454 -2.728212  2.456277
  S    -6.122897  0.954229  2.387656
  S    -2.693920 -2.274884 -0.457704
  S    -2.820999  1.261740 -0.174523
  S    -3.293812 -1.438069  3.536330
  S    -3.986406  1.936547  3.719600
