16  
    
  C    -5.323098 -2.669307  1.347860
  C    -5.434346  1.091597  1.280918
  C    -6.555336 -3.124747  0.792323
  C    -6.539426  0.451336  0.600262
  N    -4.401920 -2.354473  0.462780
  N    -4.364384  1.422776  0.559120
  N    -6.570993 -3.383850 -0.515188
  N    -6.435352  0.439126 -0.740246
  N    -6.884408 -3.074797  3.348739
  N    -7.165368  0.481032  3.079900
  S    -7.715060 -3.486730  1.955687
  S    -7.941098  0.139178  1.650868
  S    -5.042438 -2.837371 -0.994465
  S    -4.945431  1.153604 -1.042384
  S    -5.358654 -2.548388  3.053588
  S    -5.719211  1.162781  2.965053
