16  
    
  C     1.483567  1.007193  3.310961
  C     1.485553  4.282044  3.465192
  C     0.246315  0.544107  2.752851
  C     0.158236  4.185806  2.920096
  N     2.495925  1.046864  2.447956
  N     2.355543  4.475836  2.486816
  N     0.331607  0.196598  1.453218
  N     0.056698  3.986587  1.611090
  N    -0.209977  0.815184  5.258021
  N    -0.052621  4.672887  5.411881
  S    -1.079799  0.544196  3.843186
  S    -0.996093  4.178202  4.171552
  S     1.895547  0.535522  0.995997
  S     1.652948  4.202610  1.044409
  S     1.299310  1.320251  4.984187
  S     1.511290  4.813528  5.120901
