16  
    
  C     2.513405  1.038321  3.264859
  C     2.445639  4.784461  3.435034
  C     1.276179  0.805397  2.563531
  C     1.336480  4.135796  2.730799
  N     3.548331  1.297445  2.485294
  N     3.536016  5.005288  2.689279
  N     1.445868  0.953117  1.249953
  N     1.525070  4.191451  1.414822
  N     0.629088  0.697315  5.026802
  N     0.574938  4.350325  5.232772
  S    -0.096478  0.275820  3.587269
  S    -0.155622  3.935383  3.725588
  S     3.057016  1.262487  0.953521
  S     3.040337  4.806713  1.119925
  S     2.284686  0.997575  4.988988
  S     2.159328  4.880851  5.176524
