16  
    
  C    -4.726282 -2.426936  1.545702
  C    -4.714941  1.017643  1.432966
  C    -5.976632 -2.947696  1.062327
  C    -5.958529  0.775902  0.740250
  N    -3.703260 -2.472867  0.660395
  N    -3.604882  1.193313  0.633830
  N    -6.001035 -3.205106 -0.240579
  N    -5.795240  0.641138 -0.571313
  N    -6.335765 -2.650909  3.582491
  N    -6.606789  0.873263  3.248915
  S    -7.270723 -3.018128  2.227872
  S    -7.333394  0.385447  1.864096
  S    -4.418143 -2.918750 -0.779580
  S    -4.199564  0.901347 -0.919674
  S    -4.700663 -2.374236  3.304244
  S    -4.925942  1.172344  3.185485
