16  
    
  C     1.388063  0.856840  3.364459
  C     1.215305  4.382085  3.143788
  C     0.166190  0.323192  2.868151
  C    -0.023956  3.988336  2.514062
  N     2.354898  0.896890  2.418563
  N     2.132123  4.596540  2.230826
  N     0.199987 -0.083749  1.597962
  N    -0.031705  4.098858  1.192724
  N    -0.260664  0.973916  5.292669
  N    -0.494913  4.190161  5.122188
  S    -1.120377  0.488976  4.028074
  S    -1.246250  3.756376  3.658583
  S     1.738271  0.285343  1.057242
  S     1.537615  4.418488  0.738298
  S     1.351843  1.175047  5.029555
  S     1.115164  4.569313  4.885737
