16  
    
  C    -0.641336 -0.665085  2.406697
  C    -0.454021  3.488872  2.916877
  C    -1.874420 -0.929563  1.833002
  C    -1.627545  2.829114  2.283956
  N     0.403414 -0.480345  1.586306
  N     0.640777  3.500064  2.179733
  N    -1.752583 -0.964766  0.520356
  N    -1.449649  2.632535  0.975929
  N    -2.460652 -0.757618  4.310110
  N    -2.245641  3.397284  4.684929
  S    -3.320949 -1.056955  2.872228
  S    -2.981952  2.795253  3.357690
  S    -0.250655 -0.686545  0.053051
  S     0.096165  3.086617  0.622985
  S    -0.848409 -0.393386  4.131363
  S    -0.667361  3.752028  4.643265
