16  
    
  C    -0.902764 -0.684718  2.395218
  C    -0.792967  3.027305  2.462418
  C    -1.939150 -1.344497  1.693134
  C    -2.056771  2.748814  1.832973
  N     0.196795 -0.600050  1.634522
  N     0.172195  3.256632  1.592724
  N    -1.740084 -1.567754  0.362493
  N    -2.030322  2.524108  0.509892
  N    -2.741383 -0.834981  4.110164
  N    -2.495590  2.855351  4.386731
  S    -3.301522 -1.606532  2.754287
  S    -3.407515  2.628591  3.016187
  S    -0.173855 -1.128882  0.116714
  S    -0.433669  2.861334  0.079114
  S    -1.065951 -0.587037  4.116582
  S    -0.912825  3.338403  4.138397
