16  
    
  C    -1.943458 -1.150806  2.139292
  C    -2.453919  2.532352  1.992194
  C    -3.136566 -1.576223  1.493313
  C    -3.720480  2.028383  1.410445
  N    -0.911613 -0.903231  1.327894
  N    -1.485013  2.500998  1.103974
  N    -3.014878 -1.718584  0.162338
  N    -3.701121  1.877298  0.080812
  N    -3.741904 -1.312027  3.961007
  N    -4.134877  2.442641  3.968613
  S    -4.441409 -1.960759  2.607038
  S    -4.978275  1.997436  2.615273
  S    -1.467801 -1.272924 -0.201763
  S    -2.122069  2.188830 -0.375602
  S    -2.125442 -0.840873  3.771081
  S    -2.559794  2.941576  3.681099
