16  
    
  C     1.439788  1.024624  3.352537
  C     1.404226  4.632071  3.371583
  C     0.165879  0.631955  2.756393
  C     0.106097  4.083287  2.926536
  N     2.513356  0.948216  2.561293
  N     2.366960  4.575679  2.437213
  N     0.271488  0.294271  1.436331
  N     0.005388  3.916907  1.612103
  N    -0.217222  0.846167  5.290039
  N    -0.123074  4.575341  5.471950
  S    -1.124184  0.443103  3.921744
  S    -1.135325  4.138093  4.179024
  S     1.898480  0.387393  1.089140
  S     1.512007  4.301756  0.976432
  S     1.401431  1.321928  5.071694
  S     1.570942  4.705460  5.052669
