16  
    
  C    -5.179375 -2.488831  1.837430
  C    -5.398085  1.081123  1.572968
  C    -6.434326 -2.899045  1.240067
  C    -6.644733  0.785345  0.913407
  N    -4.129105 -2.444729  0.996808
  N    -4.420168  1.099573  0.671953
  N    -6.370195 -2.980181 -0.087375
  N    -6.543904  0.659551 -0.442347
  N    -6.951942 -2.132110  3.665462
  N    -7.154137  1.081929  3.483222
  S    -7.799220 -2.749433  2.325041
  S    -7.956390  0.949222  1.995375
  S    -4.783071 -2.755932 -0.532653
  S    -4.994806  0.876854 -0.831154
  S    -5.300350 -2.002639  3.459248
  S    -5.485918  1.370549  3.289907
