16  
    
  C    -1.297280 -0.715659  1.942824
  C    -1.463834  3.430554  2.035638
  C    -2.545142 -1.371725  1.528414
  C    -2.484229  2.617427  1.389510
  N    -0.406837 -0.543700  0.950342
  N    -0.552890  3.791838  1.177653
  N    -2.546334 -1.601640  0.191655
  N    -2.396957  2.405287  0.092028
  N    -2.730081 -1.127794  4.017256
  N    -3.083488  2.780853  3.931649
  S    -3.771580 -1.489545  2.755283
  S    -3.793518  2.196309  2.521389
  S    -1.170983 -1.049229 -0.421557
  S    -0.901489  3.097008 -0.317150
  S    -1.243106 -0.534454  3.627678
  S    -1.589928  3.518419  3.773354
