16  
    
  C     1.165171  0.166814  3.043190
  C     0.595259  3.811094  3.163262
  C    -0.051519 -0.286646  2.331932
  C    -0.380797  3.079543  2.345593
  N     2.211061  0.280119  2.223536
  N     1.690078  4.212148  2.474233
  N     0.146208 -0.474288  1.045831
  N    -0.252460  3.274221  1.030959
  N    -0.678710  0.043503  4.882875
  N    -1.344024  2.996624  4.746667
  S    -1.388718 -0.341975  3.469959
  S    -1.873943  2.698122  3.243498
  S     1.704340 -0.096094  0.675616
  S     1.300239  3.848893  0.840441
  S     0.910713  0.553426  4.746734
  S     0.174548  3.742144  4.845047
