16  
    
  C    -4.020933 -1.840027  1.678094
  C    -3.755401  1.693768  1.777919
  C    -5.205824 -2.353443  1.020483
  C    -5.002647  1.350769  1.191867
  N    -2.913162 -1.693535  0.941668
  N    -2.697741  1.811907  0.992078
  N    -4.959856 -2.632099 -0.275570
  N    -4.984823  1.334652 -0.144270
  N    -5.838949 -1.977991  3.513976
  N    -5.473148  1.561471  3.675766
  S    -6.499176 -2.406836  2.096953
  S    -6.348055  1.190437  2.313224
  S    -3.371347 -2.174077 -0.599637
  S    -3.408980  1.586718 -0.599602
  S    -4.262280 -1.484450  3.399280
  S    -3.854989  1.741229  3.541091
