16  
    
  C     0.069180  0.007543  2.639409
  C     0.033761  3.662076  2.605515
  C    -1.127819 -0.594678  2.127519
  C    -1.063288  2.844712  2.019405
  N     1.032336  0.186643  1.747613
  N     1.059515  3.828337  1.755686
  N    -1.120898 -0.663229  0.817821
  N    -0.973808  2.780285  0.693714
  N    -1.610308 -0.376030  4.646089
  N    -1.804934  3.378988  4.397560
  S    -2.438927 -0.896294  3.284236
  S    -2.372260  2.592736  3.094653
  S     0.370737 -0.180933  0.257186
  S     0.566091  3.168245  0.318158
  S    -0.161927  0.377347  4.331591
  S    -0.276872  4.058221  4.276663
