16  
    
  C    -2.679700 -1.591672  2.104645
  C    -2.423100  2.252603  2.121268
  C    -3.981278 -1.940954  1.560998
  C    -3.655583  2.041901  1.491896
  N    -1.754507 -1.418745  1.189796
  N    -1.395309  2.298681  1.271893
  N    -3.997009 -2.081181  0.274360
  N    -3.649556  1.856068  0.176356
  N    -4.434575 -1.676259  4.031921
  N    -4.168870  2.001008  4.045494
  S    -5.229301 -2.162780  2.661980
  S    -4.984288  1.877527  2.619931
  S    -2.497634 -1.670991 -0.254594
  S    -2.004130  1.966735 -0.226283
  S    -2.784460 -1.442758  3.850160
  S    -2.560268  2.336802  3.904163
