16  
    
  C     2.042378  0.821351  3.078408
  C     2.186128  4.603493  3.042503
  C     0.782850  0.680752  2.422383
  C     1.073100  3.943920  2.321972
  N     3.103914  0.570037  2.274334
  N     3.257938  4.543168  2.269260
  N     0.840218  0.428113  1.108190
  N     1.262317  3.592565  1.044103
  N     0.218028  1.025154  4.929425
  N     0.255414  4.381667  4.704096
  S    -0.551903  0.579351  3.522674
  S    -0.429888  3.977521  3.296949
  S     2.467252  0.231715  0.787411
  S     2.779711  4.048693  0.763689
  S     1.948803  1.239761  4.763898
  S     1.884405  4.831541  4.787621
