16  
    
  C     1.563882  1.004591  3.215227
  C     1.881168  4.655394  3.298519
  C     0.355524  0.540375  2.528305
  C     0.699674  4.029661  2.719339
  N     2.611564  1.152810  2.438393
  N     2.942127  4.661405  2.447191
  N     0.512554  0.415989  1.212401
  N     0.815851  3.665400  1.453301
  N    -0.292996  0.640951  4.975291
  N     0.126541  4.547516  5.229486
  S    -0.923531  0.122756  3.612564
  S    -0.692204  4.143484  3.801662
  S     2.086761  0.755990  0.914372
  S     2.303694  4.114428  1.004307
  S     1.260741  1.232658  4.936456
  S     1.759093  4.863779  5.048343
