16  
    
  C     2.347130  1.272932  3.425273
  C     2.353921  4.758391  3.324919
  C     1.162811  0.800162  2.730354
  C     1.095484  4.490492  2.664595
  N     3.338788  1.637781  2.632181
  N     3.325953  5.057381  2.462018
  N     1.288602  0.712583  1.401948
  N     1.257785  4.280913  1.358883
  N     0.479425  0.632677  5.191999
  N     0.590951  4.241608  5.202712
  S    -0.258519  0.474841  3.744567
  S    -0.154300  3.834177  3.730091
  S     2.768051  1.231209  1.038662
  S     2.753836  4.755649  0.893549
  S     2.126131  0.991907  5.160379
  S     2.182478  4.708864  5.053719
