16  
    
  C    -3.891358 -2.305100  1.626017
  C    -3.415633  1.764900  1.620082
  C    -5.165835 -2.420262  0.978151
  C    -4.583044  1.175641  0.985300
  N    -2.880852 -2.187918  0.810507
  N    -2.493363  2.017791  0.724769
  N    -5.117813 -2.221239 -0.318058
  N    -4.554361  1.016076 -0.338563
  N    -5.588829 -2.384263  3.471987
  N    -5.124181  1.576153  3.484761
  S    -6.399287 -2.751553  2.093869
  S    -5.915309  0.957121  2.175054
  S    -3.499910 -2.025790 -0.666664
  S    -3.039840  1.631812 -0.794327
  S    -3.927407 -2.586095  3.327948
  S    -3.616481  2.167711  3.285039
