16  
    
  C     0.669471  0.296057  3.091179
  C     0.668990  3.893402  2.885278
  C    -0.615815  0.005527  2.467024
  C    -0.588902  3.521351  2.222893
  N     1.691266  0.227130  2.214597
  N     1.728246  3.901604  2.072689
  N    -0.529534 -0.062570  1.148815
  N    -0.432620  3.205189  0.953316
  N    -1.124514  0.233835  5.013661
  N    -1.008644  3.641320  4.839690
  S    -1.936181  0.088771  3.596970
  S    -1.787431  3.207099  3.409286
  S     1.028126  0.028684  0.679071
  S     1.105513  3.626818  0.548669
  S     0.505323  0.484115  4.772757
  S     0.573257  4.135701  4.633920
