16  
    
  C    -2.995374 -1.680591  1.940919
  C    -3.360835  1.473337  2.129744
  C    -4.193056 -2.326338  1.407375
  C    -4.620852  1.278121  1.443306
  N    -2.009977 -1.614007  1.023888
  N    -2.300564  1.578197  1.316480
  N    -4.209388 -2.560188  0.092844
  N    -4.560053  0.974122  0.139991
  N    -4.591291 -2.048766  3.952209
  N    -5.256791  1.533169  4.010183
  S    -5.493707 -2.283923  2.575655
  S    -5.980640  1.190734  2.552583
  S    -2.729608 -2.064074 -0.426627
  S    -2.965934  1.136710 -0.215246
  S    -3.043873 -1.544034  3.700622
  S    -3.625111  1.771747  3.794913
