16  
    
  C    -5.435286 -2.712691  1.542422
  C    -5.521155  1.030823  1.349903
  C    -6.655597 -3.023092  0.870465
  C    -6.673036  0.408120  0.642829
  N    -4.374399 -2.717322  0.704861
  N    -4.506863  1.288600  0.544316
  N    -6.500630 -3.161412 -0.428040
  N    -6.562939  0.356430 -0.701310
  N    -7.213466 -3.277496  3.386235
  N    -7.223193  0.481629  3.184287
  S    -8.018225 -3.475236  1.930725
  S    -8.004263  0.098856  1.786838
  S    -4.913315 -3.040276 -0.821188
  S    -4.985351  0.887778 -1.005595
  S    -5.672674 -2.548625  3.331315
  S    -5.706166  1.215743  3.119992
