16  
    
  C     1.786828  0.525994  3.092712
  C     2.023002  4.326262  3.385348
  C     0.554325  0.198113  2.447163
  C     0.823116  4.007745  2.712163
  N     2.783406  0.746286  2.256105
  N     2.995996  4.638939  2.540792
  N     0.598193  0.213478  1.115818
  N     0.789409  4.141171  1.409780
  N     0.033249  0.194029  4.948997
  N     0.255770  3.998347  5.227436
  S    -0.730048 -0.144740  3.490379
  S    -0.602353  3.684772  3.798261
  S     2.209706  0.575138  0.707921
  S     2.342785  4.528414  1.006433
  S     1.631120  0.503536  4.843567
  S     1.825954  4.330297  5.099468
