16  
    
  C    -5.223187 -2.997842  1.433123
  C    -5.510798  1.133977  1.309250
  C    -6.493270 -3.416161  0.857857
  C    -6.657957  0.484168  0.596047
  N    -4.363952 -2.496380  0.559387
  N    -4.448412  1.456226  0.558311
  N    -6.455925 -3.518713 -0.482187
  N    -6.518499  0.482348 -0.745643
  N    -7.012158 -2.879892  3.313889
  N    -7.280915  0.668931  3.039742
  S    -7.812389 -3.623094  2.029902
  S    -7.959059  0.029100  1.644486
  S    -4.980965 -2.831504 -0.965031
  S    -4.942402  1.039631 -1.038364
  S    -5.397086 -2.683613  3.153901
  S    -5.689440  1.113912  3.096340
