16  
    
  C     0.007225 -0.763313  2.534526
  C    -0.243042  3.083167  2.623636
  C    -1.251040 -1.162816  1.928789
  C    -1.519593  2.706508  2.063740
  N     0.973430 -0.504237  1.642592
  N     0.698339  3.299191  1.723698
  N    -1.163367 -1.449626  0.596027
  N    -1.437651  2.432766  0.773031
  N    -1.695062 -0.690053  4.459132
  N    -1.844913  2.912026  4.584052
  S    -2.508966 -1.163855  3.084497
  S    -2.774417  2.410643  3.295231
  S     0.380347 -0.961691  0.209928
  S     0.057205  2.999833  0.259416
  S    -0.071435 -0.347565  4.232235
  S    -0.332696  3.331081  4.278884
