16  
    
  C    -4.182798 -2.538809  1.585551
  C    -4.271823  1.640354  1.949666
  C    -5.446280 -2.931273  0.999388
  C    -5.398509  0.974969  1.356557
  N    -3.241764 -2.313061  0.718413
  N    -3.166690  1.756338  1.228502
  N    -5.317496 -3.291281 -0.291272
  N    -5.195572  0.678145  0.099408
  N    -5.952940 -2.524279  3.488556
  N    -6.242698  1.605857  3.791927
  S    -6.758037 -2.831004  2.057130
  S    -6.830406  0.993751  2.340849
  S    -3.811622 -2.817440 -0.741952
  S    -3.588566  1.117280 -0.308982
  S    -4.331476 -2.033144  3.244668
  S    -4.641165  1.963628  3.617922
