16  
    
  C     3.208980  1.591165  3.759078
  C     3.213134  4.958343  3.490876
  C     2.015383  1.188503  3.091190
  C     1.974323  4.643660  2.769018
  N     4.216509  1.713691  2.871151
  N     4.227535  5.158667  2.670941
  N     2.107536  1.003258  1.770002
  N     2.090684  4.533175  1.449388
  N     1.329776  1.577639  5.527828
  N     1.392902  5.140245  5.207577
  S     0.582214  1.166619  4.061679
  S     0.573390  4.594257  3.794251
  S     3.681674  1.334100  1.413360
  S     3.739949  4.795727  1.131262
  S     3.002106  1.741130  5.489031
  S     3.052332  5.239323  5.166334
