16  
    
  C    -3.010962 -1.854942  2.190228
  C    -3.320875  1.708280  2.020013
  C    -4.304824 -1.804337  1.555371
  C    -4.580384  1.247586  1.517670
  N    -1.922415 -1.875037  1.393378
  N    -2.376296  1.837612  1.104963
  N    -4.234861 -1.985607  0.243823
  N    -4.678220  1.282361  0.193070
  N    -4.701327 -1.960078  4.148075
  N    -4.939220  1.470054  4.027635
  S    -5.569588 -2.026553  2.703976
  S    -5.828070  1.106489  2.711738
  S    -2.606706 -1.950378 -0.154945
  S    -3.134049  1.620219 -0.359148
  S    -3.097032 -1.656245  3.913236
  S    -3.368269  1.816005  3.766849
