16  
    
  C    -1.617523 -1.156892  2.106922
  C    -1.739655  2.310529  1.977538
  C    -2.897768 -1.423594  1.487496
  C    -2.957407  2.092513  1.257360
  N    -0.594886 -1.151254  1.276540
  N    -0.732640  2.484539  1.128493
  N    -2.879839 -1.505643  0.168305
  N    -2.880598  1.828643 -0.066350
  N    -3.298616 -0.992884  4.002990
  N    -3.534757  2.236266  3.799209
  S    -4.225733 -1.180292  2.659215
  S    -4.312733  1.892760  2.331888
  S    -1.276568 -1.400972 -0.268434
  S    -1.280025  2.204639 -0.412648
  S    -1.654579 -0.893246  3.812167
  S    -1.863752  2.371137  3.686053
