16  
    
  C     3.440709  1.669489  3.613273
  C     2.972928  5.182908  3.384498
  C     2.200217  1.184825  3.081735
  C     1.844531  4.678645  2.681192
  N     4.308125  1.874235  2.648675
  N     4.018836  5.548902  2.608238
  N     2.161847  1.002465  1.778408
  N     2.073351  4.425652  1.383540
  N     1.927923  1.436265  5.687692
  N     1.336982  4.736451  5.281366
  S     1.066100  0.939207  4.342815
  S     0.533178  4.309150  3.874310
  S     3.643506  1.427136  1.194363
  S     3.656057  4.902415  1.092599
  S     3.556576  1.695660  5.337923
  S     2.789791  5.553816  5.067506
