16  
    
  C     1.396450  0.733661  2.894170
  C     0.865455  4.171158  2.521470
  C     0.190007  0.287065  2.265891
  C    -0.173244  3.425386  1.926301
  N     2.385142  1.034083  2.090729
  N     1.984968  4.313064  1.779419
  N     0.342256  0.193307  0.942343
  N    -0.011698  3.364431  0.606609
  N    -0.223213  0.195525  4.891285
  N    -0.890080  3.725809  4.362534
  S    -1.055025  0.110062  3.410869
  S    -1.552228  3.154297  2.946171
  S     1.903823  0.675369  0.576983
  S     1.496795  3.867492  0.280894
  S     1.338113  0.759384  4.635114
  S     0.611528  4.348702  4.226061
