16  
    
  C    -0.590951 -0.682701  2.407264
  C    -0.435637  3.494677  2.925312
  C    -1.860601 -0.891440  1.817236
  C    -1.616605  2.834001  2.300147
  N     0.415106 -0.442202  1.586025
  N     0.649600  3.575413  2.141804
  N    -1.753937 -1.018582  0.511014
  N    -1.425188  2.654988  1.003270
  N    -2.436894 -0.775491  4.303625
  N    -2.240441  3.378308  4.677994
  S    -3.267452 -1.046419  2.868843
  S    -2.977338  2.814245  3.349149
  S    -0.229044 -0.674278  0.054061
  S     0.105565  3.090941  0.621587
  S    -0.814953 -0.386867  4.142235
  S    -0.656432  3.748362  4.656289
