16  
    
  C    -0.200945 -0.300976  2.715885
  C     0.206751  3.572958  2.289565
  C    -1.466105 -0.451250  1.993723
  C    -1.048120  3.236311  1.711710
  N     0.852556 -0.193390  1.898180
  N     1.217481  3.624750  1.456381
  N    -1.287511 -0.687990  0.678666
  N    -1.084426  3.236772  0.389269
  N    -1.972090 -0.455570  4.520504
  N    -1.559297  3.281454  4.270882
  S    -2.746855 -0.794804  3.073514
  S    -2.407552  2.991901  2.809132
  S     0.356740 -0.540976  0.319547
  S     0.433659  3.518880 -0.075153
  S    -0.345127 -0.275502  4.452863
  S     0.090248  3.508604  4.048345
