16  
    
  C    -4.690400 -2.493421  1.680746
  C    -4.863955  1.203238  1.581444
  C    -5.902818 -3.102723  1.174427
  C    -6.011432  0.665654  0.836762
  N    -3.728928 -2.283213  0.748622
  N    -3.804319  1.454366  0.773897
  N    -5.958480 -3.147212 -0.150760
  N    -5.805583  0.276078 -0.421004
  N    -6.302421 -2.758892  3.673154
  N    -6.566219  0.789082  3.370653
  S    -7.250856 -3.026899  2.310730
  S    -7.255928  0.225236  1.951256
  S    -4.464307 -2.631012 -0.694589
  S    -4.237261  0.868394 -0.740735
  S    -4.783297 -2.151196  3.346967
  S    -5.021030  1.327974  3.296722
