16  
    
  C     0.885787  0.210421  2.926738
  C     0.525619  3.725211  2.928778
  C    -0.364409 -0.147811  2.276131
  C    -0.826850  3.482983  2.376610
  N     1.852831  0.379802  2.057398
  N     1.489320  3.801821  2.013210
  N    -0.230705 -0.433759  0.978824
  N    -0.830389  3.672911  1.051423
  N    -0.887682  0.136829  4.829047
  N    -1.076764  3.448025  4.944857
  S    -1.678746 -0.183543  3.400506
  S    -2.067075  3.330166  3.579337
  S     1.334386 -0.046942  0.505895
  S     0.682556  3.866716  0.551250
  S     0.725160  0.480545  4.671933
  S     0.513278  3.524136  4.711036
