16  
    
  C    -2.728293 -1.573495  2.135735
  C    -2.551904  2.430404  2.222771
  C    -3.986451 -1.820719  1.541357
  C    -3.764769  1.896147  1.577948
  N    -1.718862 -1.211172  1.292711
  N    -1.486729  2.616161  1.439235
  N    -3.849680 -1.985199  0.204680
  N    -3.612518  1.852692  0.250292
  N    -4.440293 -1.467073  4.073836
  N    -4.246516  1.861567  4.105208
  S    -5.259470 -2.076521  2.746711
  S    -5.088571  1.687209  2.654188
  S    -2.235993 -1.556722 -0.211636
  S    -2.034036  2.280586 -0.097571
  S    -2.766218 -1.344044  3.857601
  S    -2.635282  2.390370  3.942381
