16  
    
  C     2.302196  0.746120  3.538435
  C     1.879971  5.032162  3.156007
  C     0.994979  0.628484  2.931508
  C     0.778648  4.566665  2.326208
  N     3.310441  0.718957  2.663954
  N     2.927508  5.400105  2.396479
  N     1.049256  0.617662  1.580789
  N     1.092688  4.264343  1.056191
  N     0.649985  1.088394  5.425028
  N    -0.036842  4.828573  4.834516
  S    -0.278665  0.522660  4.197185
  S    -0.569466  4.084429  3.366063
  S     2.703125  0.649588  1.156749
  S     2.696140  4.818840  0.850776
  S     2.267983  1.133160  5.223529
  S     1.647204  5.291320  4.852468
