16  
    
  C    -5.191883 -2.468040  1.804947
  C    -5.382779  1.082862  1.555020
  C    -6.430807 -2.930028  1.240335
  C    -6.637842  0.859534  0.883236
  N    -4.122137 -2.425929  0.980164
  N    -4.377064  1.124596  0.670435
  N    -6.391411 -2.946624 -0.097561
  N    -6.552623  0.639784 -0.443755
  N    -6.962878 -2.180620  3.667146
  N    -7.164315  1.089298  3.464871
  S    -7.838606 -2.743673  2.321724
  S    -7.968033  0.929829  1.988192
  S    -4.779670 -2.727193 -0.562991
  S    -4.993258  0.858678 -0.838987
  S    -5.315175 -1.976387  3.446256
  S    -5.461937  1.367955  3.281119
