16  
    
  C     3.759560  2.052583  3.665067
  C     3.533605  5.271257  3.595408
  C     2.617083  1.494856  2.989083
  C     2.251738  4.988801  2.925936
  N     4.805683  2.271745  2.906858
  N     4.549188  5.518037  2.802545
  N     2.886988  1.342296  1.713737
  N     2.403498  4.896496  1.597014
  N     1.796462  1.926630  5.352704
  N     1.816134  4.985434  5.457443
  S     1.139587  1.555899  3.912034
  S     0.937452  4.769266  4.015674
  S     4.373951  1.881984  1.329085
  S     3.969625  5.351907  1.262940
  S     3.408552  2.249241  5.383791
  S     3.449847  5.423235  5.287594
