16  
    
  C    -1.441795 -1.166688  2.609128
  C    -1.500167  2.706537  2.309377
  C    -2.503342 -1.558018  1.751882
  C    -2.577560  2.013493  1.626090
  N    -0.368356 -0.852110  1.940571
  N    -0.348839  2.761289  1.581853
  N    -2.308683 -1.621301  0.436350
  N    -2.355914  1.832425  0.303783
  N    -3.352616 -1.628946  4.162975
  N    -3.446694  2.455759  4.034795
  S    -3.938340 -1.955301  2.632903
  S    -4.039438  1.758450  2.609636
  S    -0.677327 -1.153146  0.333860
  S    -0.803540  2.317863  0.049698
  S    -1.854238 -0.960151  4.282849
  S    -1.881685  3.035620  3.952213
