16  
    
  C     3.186144  1.630927  3.283649
  C     3.056121  5.061613  3.366846
  C     1.904065  1.367322  2.658483
  C     1.870096  4.673677  2.676437
  N     4.160324  1.591574  2.378769
  N     4.155069  5.028520  2.621162
  N     1.960127  1.049046  1.357115
  N     1.986157  4.617797  1.347673
  N     1.433872  1.598860  5.156842
  N     1.276747  5.001201  5.199974
  S     0.516922  1.519672  3.789117
  S     0.467788  4.623862  3.823058
  S     3.594333  1.191209  0.952243
  S     3.683109  4.865171  1.049811
  S     3.057894  1.885596  5.026296
  S     2.900758  5.254933  5.106427
