16  
    
  C     1.051533  0.241822  2.939983
  C     0.440465  3.823758  2.838160
  C    -0.103110 -0.142236  2.231546
  C    -0.533870  3.010439  2.103383
  N     2.095754  0.580535  2.192210
  N     1.568848  3.980094  2.136334
  N     0.017727 -0.122058  0.921811
  N    -0.244590  2.922765  0.804775
  N    -0.777711 -0.259633  4.743937
  N    -1.388672  3.201593  4.544808
  S    -1.548396 -0.392243  3.283631
  S    -1.990852  2.670053  3.022291
  S     1.570460  0.405836  0.625684
  S     1.176181  3.639284  0.586682
  S     0.781150  0.212581  4.684743
  S     0.155848  3.728001  4.579938
