16  
    
  C    -3.769500 -2.351211  1.749575
  C    -3.411432  1.745287  1.613570
  C    -4.981667 -2.687935  1.025568
  C    -4.589220  1.248594  1.055296
  N    -2.733647 -2.240699  0.880676
  N    -2.368329  1.892413  0.818279
  N    -4.878039 -2.664822 -0.313780
  N    -4.415260  0.878246 -0.213638
  N    -5.475437 -2.882523  3.544336
  N    -5.106648  1.465605  3.514129
  S    -6.361749 -2.781498  2.109976
  S    -5.845793  0.805760  2.169867
  S    -3.282048 -2.389148 -0.637992
  S    -2.851883  1.249889 -0.602318
  S    -3.812331 -2.647876  3.406995
  S    -3.571462  2.101826  3.289237
