16  
    
  C     3.303024  1.463897  3.408679
  C     3.104069  5.008426  3.475587
  C     1.986891  1.329517  2.819995
  C     1.907427  4.503521  2.921050
  N     4.329249  1.485046  2.555206
  N     4.150884  5.087829  2.647863
  N     1.982943  1.199451  1.492460
  N     1.958536  4.417256  1.586570
  N     1.679862  1.811812  5.336995
  N     1.446543  4.998439  5.423481
  S     0.731193  1.636745  4.016632
  S     0.576933  4.691621  4.063702
  S     3.553946  1.349694  1.013662
  S     3.520744  4.720467  1.179967
  S     3.332808  1.694294  5.055673
  S     3.028310  5.365498  5.136379
