16  
    
  C    -4.021266 -2.207502  1.755840
  C    -4.029084  1.389443  1.665354
  C    -5.307974 -2.408880  1.199355
  C    -5.347275  1.348007  1.027485
  N    -3.077690 -2.220179  0.864870
  N    -2.974404  1.363558  0.873336
  N    -5.404142 -2.391153 -0.131733
  N    -5.212941  1.104919 -0.269819
  N    -5.725554 -1.797872  3.674138
  N    -5.840779  1.597399  3.553982
  S    -6.594239 -2.279843  2.352498
  S    -6.716513  1.319453  2.104976
  S    -3.798348 -2.247226 -0.612134
  S    -3.535574  1.123186 -0.668555
  S    -4.087417 -1.811990  3.410211
  S    -4.201608  1.678304  3.374545
