16  
    
  C    -3.996774 -1.886673  1.703208
  C    -3.609167  1.835638  1.799981
  C    -5.158927 -2.376535  1.069362
  C    -4.889781  1.410733  1.222026
  N    -2.945092 -1.696332  0.914951
  N    -2.672196  2.246931  0.935893
  N    -5.047619 -2.529514 -0.282862
  N    -4.760351  1.363883 -0.105976
  N    -5.774474 -2.154325  3.595100
  N    -5.288217  1.285243  3.752128
  S    -6.382494 -2.827819  2.229057
  S    -6.184719  1.172510  2.320761
  S    -3.493201 -2.110146 -0.607626
  S    -3.310240  1.932770 -0.560643
  S    -4.139277 -1.777605  3.466451
  S    -3.738604  2.014908  3.543462
