16  
    
  C    -2.669221 -1.864120  1.989433
  C    -2.956375  2.181785  1.799967
  C    -3.895926 -2.070148  1.262609
  C    -4.065711  1.546082  1.094319
  N    -1.626036 -1.869070  1.166308
  N    -1.950373  2.584892  1.043943
  N    -3.791368 -2.192809 -0.066556
  N    -3.884558  1.517591 -0.211236
  N    -4.498272 -1.845456  3.806368
  N    -4.841295  1.679840  3.608078
  S    -5.240605 -2.045334  2.331325
  S    -5.472873  1.344735  2.087839
  S    -2.121309 -2.194666 -0.355335
  S    -2.452255  2.304879 -0.517259
  S    -2.837357 -1.746699  3.713167
  S    -3.284067  2.322894  3.495031
