16  
    
  C     1.595933  0.728456  2.836376
  C     0.939752  3.827411  2.522351
  C     0.386862  0.167100  2.249354
  C    -0.289289  3.525705  1.913356
  N     2.609293  0.790822  1.986837
  N     1.935583  4.002810  1.658183
  N     0.492613 -0.146523  0.917227
  N    -0.200828  3.265451  0.595356
  N    -0.155488  0.682634  4.692636
  N    -0.842301  3.548248  4.446262
  S    -0.964716  0.173141  3.352211
  S    -1.639090  3.185432  3.015027
  S     2.030489  0.278171  0.536143
  S     1.332666  3.707982  0.164255
  S     1.394574  1.130334  4.509846
  S     0.708686  4.130234  4.205896
