16  
    
  C    -3.973773 -1.738116  1.709483
  C    -3.842883  1.525565  1.747718
  C    -5.183367 -2.236423  1.047878
  C    -5.090523  1.348146  1.159570
  N    -2.921019 -1.697207  0.894077
  N    -2.844410  1.679982  0.906381
  N    -4.970417 -2.584271 -0.227742
  N    -5.063472  1.206864 -0.161993
  N    -5.767936 -2.069028  3.499447
  N    -5.530932  1.481506  3.666103
  S    -6.617482 -2.335764  2.028013
  S    -6.371527  1.293330  2.215927
  S    -3.384647 -2.270706 -0.579589
  S    -3.447943  1.485798 -0.547635
  S    -4.196356 -1.499894  3.390398
  S    -3.856008  1.746951  3.501382
