16  
    
  C     0.841024  0.077929  2.798364
  C     0.432406  3.636758  2.958076
  C    -0.419932 -0.320955  2.191038
  C    -0.844263  3.600735  2.387782
  N     1.850586  0.123717  1.931613
  N     1.453881  3.844984  2.122724
  N    -0.437981 -0.376336  0.849478
  N    -0.864790  3.697971  1.080617
  N    -0.805525 -0.184780  4.804374
  N    -1.183313  3.041949  4.883734
  S    -1.706024 -0.368900  3.426733
  S    -2.122735  3.215245  3.536939
  S     1.162018 -0.103102  0.446868
  S     0.786118  3.942300  0.606138
  S     0.837719  0.051818  4.595822
  S     0.478255  3.335349  4.657444
