16  
    
  C    -4.217779 -1.969057  1.758404
  C    -4.152173  1.532759  1.943151
  C    -5.423707 -2.512410  1.200186
  C    -5.374689  0.960156  1.376017
  N    -3.179041 -2.007298  0.953191
  N    -3.217992  1.729651  1.008927
  N    -5.334281 -2.753884 -0.135606
  N    -5.240728  0.521911  0.102987
  N    -6.023758 -2.063859  3.643584
  N    -5.923437  1.741594  3.697843
  S    -6.821976 -2.395098  2.259728
  S    -6.697369  0.930982  2.474182
  S    -3.770041 -2.517451 -0.557097
  S    -3.827695  1.049201 -0.392365
  S    -4.425273 -1.467566  3.517795
  S    -4.310272  2.076952  3.513590
