16  
    
  C     2.582821  1.164903  3.340070
  C     2.691418  5.213536  3.646690
  C     1.454027  0.584579  2.651653
  C     1.476070  4.544673  3.174137
  N     3.663926  1.369707  2.603488
  N     3.736647  5.110888  2.845213
  N     1.694078  0.317072  1.385410
  N     1.517982  4.244631  1.895261
  N     0.565391  0.913356  4.987714
  N     1.092048  4.956820  5.637277
  S    -0.060516  0.527920  3.523204
  S     0.273259  4.221712  4.364658
  S     3.238787  0.842710  1.041526
  S     3.066673  4.574042  1.373250
  S     2.221439  1.392231  5.035620
  S     2.618231  5.599222  5.383068
