16  
    
  C    -0.219809 -0.156348  2.544611
  C    -0.299190  3.232795  2.537210
  C    -1.320869 -0.771519  1.832906
  C    -1.592688  2.980150  1.980244
  N     0.785020  0.076296  1.728748
  N     0.629982  3.549081  1.605338
  N    -1.037452 -1.083426  0.574396
  N    -1.595259  2.631542  0.675128
  N    -2.097357 -0.650696  4.273440
  N    -2.026720  3.174218  4.493502
  S    -2.695353 -1.043787  2.798606
  S    -2.923510  2.924072  3.107694
  S     0.451559 -0.601255  0.243468
  S    -0.091603  3.053505  0.141650
  S    -0.528464 -0.094901  4.253144
  S    -0.395576  3.416551  4.260605
