16  
    
  C    -4.930572 -2.528317  1.940982
  C    -5.347023  0.936650  1.770187
  C    -6.115668 -3.060161  1.281118
  C    -6.583270  0.607906  1.082806
  N    -3.855467 -2.523838  1.138085
  N    -4.342500  1.102224  0.939418
  N    -5.973342 -3.173779 -0.024156
  N    -6.450832  0.459548 -0.215566
  N    -6.818994 -2.567365  3.762244
  N    -7.187856  1.030179  3.651192
  S    -7.482875 -3.092342  2.340780
  S    -7.883069  0.614442  2.184092
  S    -4.401120 -2.952584 -0.378383
  S    -4.854109  0.837208 -0.590092
  S    -5.160412 -2.302902  3.648245
  S    -5.515547  1.342789  3.453603
