16  
    
  C    -0.186128 -0.337840  2.756861
  C     0.156681  3.426809  2.331909
  C    -1.364026 -0.635833  2.001715
  C    -1.102400  3.176808  1.629822
  N     0.877342 -0.079355  2.026505
  N     1.130987  3.775223  1.479025
  N    -1.146542 -0.922220  0.738667
  N    -0.984403  3.039336  0.294037
  N    -2.060291 -0.618077  4.480499
  N    -1.462687  2.964223  4.252261
  S    -2.769058 -0.887277  2.972972
  S    -2.371097  2.896849  2.824361
  S     0.459103 -0.524045  0.463727
  S     0.569896  3.486908 -0.062833
  S    -0.455260 -0.283130  4.448132
  S     0.130295  3.405699  4.054234
