16  
    
  C     0.804311  0.302443  2.882811
  C     0.669889  3.609162  2.718616
  C    -0.453887 -0.205290  2.329299
  C    -0.653093  3.440209  2.141716
  N     1.718022  0.571726  1.983332
  N     1.599909  3.881725  1.826094
  N    -0.338409 -0.484124  1.038592
  N    -0.614384  3.271101  0.811089
  N    -0.915194  0.133455  4.870838
  N    -0.922194  3.312151  4.726762
  S    -1.740121 -0.267975  3.503081
  S    -1.944629  3.148916  3.382758
  S     1.120282  0.070219  0.496328
  S     0.892333  3.721838  0.366922
  S     0.650764  0.588132  4.589711
  S     0.654702  3.512332  4.436686
