16  
    
  C    -3.415826 -2.088541  1.892731
  C    -3.737152  1.901497  1.935953
  C    -4.459628 -2.903654  1.229186
  C    -4.696311  1.084448  1.304417
  N    -2.304325 -2.023983  1.160207
  N    -2.760569  2.429454  1.172824
  N    -4.274378 -3.188099 -0.061060
  N    -4.360819  0.772155  0.051041
  N    -5.200091 -2.406282  3.700164
  N    -5.605798  1.391863  3.772857
  S    -5.906097 -2.923849  2.274189
  S    -6.000187  0.547896  2.372532
  S    -2.712205 -2.613429 -0.360745
  S    -2.983847  1.668223 -0.345677
  S    -3.648182 -1.721696  3.570613
  S    -4.255348  2.323303  3.548251
