16  
    
  C    -0.111449 -0.472507  2.801834
  C     0.197492  3.262949  2.362225
  C    -1.305340 -0.867317  2.035589
  C    -1.024719  3.000721  1.714077
  N     0.944366 -0.150036  2.057687
  N     1.192679  3.718999  1.563006
  N    -1.066078 -1.008910  0.754766
  N    -0.955301  2.964943  0.373023
  N    -2.139148 -0.639085  4.427753
  N    -1.529684  2.842376  4.227089
  S    -2.729724 -1.178379  2.943297
  S    -2.340408  2.626119  2.759005
  S     0.470304 -0.450430  0.458231
  S     0.576957  3.387172  0.006762
  S    -0.541026 -0.263974  4.401725
  S    -0.015847  3.456482  4.141043
