16  
    
  C    -5.435593 -2.317921  1.495659
  C    -5.270747  0.966712  1.375988
  C    -6.610218 -2.782788  0.849134
  C    -6.499928  0.497359  0.753444
  N    -4.450990 -2.016014  0.660007
  N    -4.328138  1.336651  0.537271
  N    -6.463432 -2.965258 -0.449033
  N    -6.411080  0.364789 -0.561043
  N    -7.095673 -2.522747  3.419275
  N    -7.103083  0.909650  3.216946
  S    -7.902375 -2.923095  2.022259
  S    -7.808968  0.344039  1.835189
  S    -4.986209 -2.367844 -0.841749
  S    -4.902021  0.962794 -0.978400
  S    -5.526593 -2.142133  3.237711
  S    -5.524365  1.336755  3.076775
