16  
    
  C    -0.087862 -0.453243  2.406658
  C    -0.315708  3.355303  2.739025
  C    -1.284681 -0.880712  1.792153
  C    -1.626145  3.198607  2.081720
  N     0.920794 -0.249321  1.557455
  N     0.656529  3.425624  1.829506
  N    -1.252033 -1.028439  0.475051
  N    -1.597880  2.979687  0.746548
  N    -1.894441 -0.586611  4.256007
  N    -2.083635  3.242088  4.648797
  S    -2.610614 -1.310483  2.918867
  S    -2.872287  2.887392  3.216205
  S     0.299982 -0.644770  0.040784
  S    -0.008006  3.258943  0.311897
  S    -0.330184 -0.050550  4.123955
  S    -0.493294  3.714913  4.436678
