16  
    
  C     2.359230  0.825010  3.533479
  C     1.910515  5.181707  3.091156
  C     1.047632  0.698772  2.940914
  C     0.919859  4.341381  2.470498
  N     3.380155  0.715410  2.672541
  N     2.967404  5.391915  2.271261
  N     1.059410  0.649545  1.588381
  N     1.098806  4.143402  1.163523
  N     0.626130  1.113373  5.463811
  N     0.103179  4.649140  4.763307
  S    -0.221192  0.479126  4.071805
  S    -0.571045  4.147139  3.374704
  S     2.623419  0.621688  1.192823
  S     2.560908  4.739985  0.809479
  S     2.289719  1.080118  5.221392
  S     1.621338  5.170623  4.744852
