16  
    
  C     3.615962  2.164731  3.593330
  C     3.481288  5.300325  3.568251
  C     2.467187  1.610382  2.906071
  C     2.218437  5.014018  2.942287
  N     4.692713  2.351871  2.824092
  N     4.457553  5.569428  2.651761
  N     2.715069  1.306008  1.631010
  N     2.246815  4.845006  1.631453
  N     1.786309  1.931271  5.409899
  N     1.722397  4.891304  5.494487
  S     1.140954  1.381297  3.931819
  S     0.952531  4.614112  4.018401
  S     4.328038  1.740469  1.365871
  S     3.818789  5.197316  1.183132
  S     3.445803  2.186912  5.340275
  S     3.270573  5.362868  5.320021
