16  
    
  C     3.217512  1.460877  3.676514
  C     3.157708  5.110602  3.501856
  C     1.945774  1.368000  2.979839
  C     1.920026  4.720873  2.814270
  N     4.236220  1.411667  2.855361
  N     4.224017  5.007733  2.726880
  N     1.992847  1.335748  1.642504
  N     2.045505  4.603403  1.491678
  N     1.616385  1.227264  5.533456
  N     1.386840  5.142392  5.244910
  S     0.659895  1.328072  4.184494
  S     0.539665  4.748487  3.883086
  S     3.630380  1.331530  1.273410
  S     3.663999  4.697553  1.169228
  S     3.196173  1.738013  5.344413
  S     3.087214  5.220113  5.202124
