16  
    
  C     2.069007  0.583042  3.206542
  C     1.995054  4.382021  2.996824
  C     0.776736  0.262840  2.687518
  C     0.753063  3.959807  2.433477
  N     3.014551  0.707559  2.309593
  N     3.071100  4.332339  2.179507
  N     0.757829  0.008447  1.380597
  N     0.812778  3.762608  1.107449
  N     0.395220  0.768951  5.070850
  N     0.251858  4.278798  4.983264
  S    -0.497870  0.653254  3.775595
  S    -0.511404  3.949420  3.536081
  S     2.336173  0.365383  0.850079
  S     2.425632  3.948696  0.731079
  S     2.048412  0.891158  4.904977
  S     1.893066  4.803766  4.740487
