16  
    
  C    -3.981895 -2.022405  1.767263
  C    -4.003329  1.580541  1.688116
  C    -5.261504 -2.219712  1.065972
  C    -5.213311  1.258200  1.053298
  N    -2.992285 -1.942827  0.866201
  N    -2.922373  1.514154  0.911269
  N    -5.188666 -2.512269 -0.236451
  N    -5.191692  1.109912 -0.256802
  N    -5.784830 -1.838191  3.585140
  N    -5.702966  1.584681  3.574605
  S    -6.624359 -2.280858  2.206784
  S    -6.536091  1.361530  2.109814
  S    -3.573298 -2.281561 -0.670717
  S    -3.553737  1.203827 -0.635944
  S    -4.095098 -1.707841  3.435695
  S    -4.048065  1.665582  3.429158
