16  
    
  C     1.416639  0.904363  3.284305
  C     1.238508  4.290196  3.095516
  C     0.140452  0.390046  2.840924
  C    -0.037403  4.110560  2.441687
  N     2.391163  0.917517  2.382700
  N     2.247234  4.626791  2.244522
  N     0.199321 -0.060260  1.595223
  N     0.023331  3.974116  1.105012
  N    -0.264986  0.958471  5.285649
  N    -0.584724  4.172262  4.922095
  S    -1.180926  0.434668  4.000524
  S    -1.329016  3.687667  3.564922
  S     1.701125  0.234396  0.980390
  S     1.544523  4.428550  0.735487
  S     1.342232  1.178653  5.043348
  S     1.068962  4.527924  4.893617
