16  
    
  C     1.593282  0.726904  2.836257
  C     0.943065  3.821859  2.527686
  C     0.386766  0.171279  2.251277
  C    -0.294468  3.538729  1.911569
  N     2.606331  0.788977  1.983712
  N     1.934716  4.000195  1.655010
  N     0.494693 -0.153178  0.920060
  N    -0.191388  3.267417  0.602389
  N    -0.155742  0.685579  4.691391
  N    -0.836333  3.548477  4.445377
  S    -0.961975  0.180417  3.352616
  S    -1.639334  3.184565  3.013575
  S     2.033071  0.270084  0.536601
  S     1.333587  3.709891  0.167205
  S     1.385516  1.131761  4.514123
  S     0.703893  4.125472  4.202922
