16  
    
  C     2.359310  0.844909  3.519131
  C     1.950287  5.035400  3.033716
  C     1.074338  0.704376  2.919410
  C     0.838186  4.372290  2.405190
  N     3.337754  0.805040  2.618806
  N     2.959491  5.336938  2.245171
  N     1.051972  0.605321  1.611287
  N     1.098462  3.993511  1.188942
  N     0.605894  1.020350  5.446734
  N     0.121155  4.500745  4.842488
  S    -0.182703  0.528857  4.033243
  S    -0.536021  4.172511  3.376497
  S     2.623720  0.606899  1.162805
  S     2.537585  4.730771  0.736217
  S     2.278891  1.059382  5.263003
  S     1.655075  5.142219  4.758836
