16  
    
  C     3.792704  1.924134  3.725481
  C     3.583760  5.249128  3.559608
  C     2.613702  1.527173  2.934445
  C     2.361046  4.960353  2.898214
  N     4.846154  2.180025  2.989317
  N     4.592798  5.629727  2.769325
  N     2.783939  1.371910  1.604947
  N     2.455659  4.994457  1.559131
  N     1.843258  1.818590  5.467058
  N     1.788159  5.149352  5.500589
  S     1.207011  1.621244  3.904334
  S     1.016099  4.876012  4.067382
  S     4.390955  1.941364  1.393793
  S     4.067673  5.370594  1.221442
  S     3.465463  2.281781  5.414930
  S     3.393351  5.428197  5.307231
