16  
    
  C    -4.088696 -2.297637  1.766442
  C    -4.088547  1.431983  1.682173
  C    -5.435714 -2.296415  1.204652
  C    -5.333898  1.214917  0.999230
  N    -3.088397 -2.247685  0.853654
  N    -2.977321  1.265600  0.945861
  N    -5.442117 -2.420216 -0.123041
  N    -5.204616  1.143438 -0.331547
  N    -5.708543 -1.855355  3.740493
  N    -5.935219  1.570774  3.565451
  S    -6.591789 -2.289022  2.409829
  S    -6.722015  1.324910  2.117710
  S    -3.867126 -2.281669 -0.618142
  S    -3.558036  1.124748 -0.689199
  S    -4.059578 -1.842226  3.471871
  S    -4.276020  1.675549  3.378910
