16  
    
  C     0.295418  0.110530  2.757370
  C     0.258592  3.503402  2.796387
  C    -0.870636 -0.474757  2.139821
  C    -0.958338  3.046823  2.072786
  N     1.272524  0.372462  1.917382
  N     1.171500  4.042819  1.984275
  N    -0.705925 -0.760540  0.872669
  N    -0.735050  2.865443  0.752998
  N    -1.407550 -0.392531  4.657884
  N    -1.650927  2.998924  4.568399
  S    -2.179364 -0.814343  3.263076
  S    -2.338488  2.664563  3.113359
  S     0.834077 -0.268981  0.389287
  S     0.780490  3.465880  0.480257
  S     0.147713  0.156725  4.489404
  S    -0.083902  3.725932  4.469106
