16  
    
  C     1.100856  0.260193  3.130452
  C     1.074729  4.177993  2.623884
  C    -0.057362  0.098025  2.293741
  C    -0.097143  3.590510  1.908903
  N     2.264344  0.277573  2.431549
  N     2.166332  4.380401  1.876902
  N     0.192888 -0.116612  1.011830
  N     0.209019  3.092487  0.730811
  N    -0.785779  0.272919  4.725814
  N    -0.971037  4.077241  4.258814
  S    -1.524772  0.226267  3.295002
  S    -1.445592  3.196323  2.962174
  S     1.867016 -0.000504  0.801544
  S     1.750313  3.641893  0.337032
  S     0.823340  0.491103  4.821946
  S     0.650667  4.549971  4.280625
