16  
    
  C    -3.527900 -2.454812  1.951838
  C    -3.714773  1.990872  1.833386
  C    -4.666128 -2.939260  1.223800
  C    -4.692063  1.025267  1.284387
  N    -2.491239 -2.253127  1.141911
  N    -2.699191  2.343443  1.007812
  N    -4.413499 -3.296458 -0.044722
  N    -4.412157  0.748734  0.010129
  N    -5.376262 -2.481324  3.617755
  N    -5.448688  1.388569  3.751983
  S    -5.991713 -3.322011  2.271672
  S    -5.945332  0.569564  2.421000
  S    -2.864788 -2.779760 -0.351660
  S    -2.977640  1.507720 -0.432407
  S    -3.776562 -2.111954  3.621829
  S    -4.066763  2.286051  3.539111
