16  
    
  C     3.157615  1.555967  3.280380
  C     3.097379  4.876635  3.403480
  C     1.874191  1.252950  2.722702
  C     1.832911  4.701422  2.674697
  N     4.191186  1.642686  2.431805
  N     4.163428  5.128253  2.648562
  N     1.967184  1.034580  1.424071
  N     2.027446  4.609076  1.360829
  N     1.351624  1.632365  5.164326
  N     1.238364  5.004112  5.168238
  S     0.526665  1.475399  3.755399
  S     0.495311  4.658019  3.743560
  S     3.544765  1.232941  0.913113
  S     3.658302  4.871661  1.071795
  S     2.999170  1.823547  5.015419
  S     2.871172  5.272589  5.062586
