16  
    
  C    -4.168979 -2.046819  1.806330
  C    -4.217224  1.548118  1.849886
  C    -5.451597 -2.397346  1.129888
  C    -5.394887  0.929424  1.336373
  N    -3.159232 -2.092206  0.913776
  N    -3.218095  1.667764  0.996726
  N    -5.379644 -2.784330 -0.123051
  N    -5.299473  0.532897  0.092882
  N    -6.009236 -1.990241  3.629314
  N    -6.003736  1.683833  3.770635
  S    -6.833822 -2.490351  2.206262
  S    -6.730315  0.932445  2.436926
  S    -3.779206 -2.566326 -0.559217
  S    -3.728440  1.045940 -0.398757
  S    -4.370690 -1.529567  3.446901
  S    -4.340009  2.164222  3.550948
