16  
    
  C     0.021898 -0.584065  2.426052
  C    -0.179514  3.166656  2.637057
  C    -1.238025 -0.921282  1.825193
  C    -1.463137  2.772385  2.014198
  N     1.034986 -0.562651  1.569783
  N     0.828442  3.376300  1.773503
  N    -1.180000 -1.016479  0.507216
  N    -1.334381  2.408658  0.751999
  N    -1.668383 -0.832724  4.401507
  N    -1.926388  2.855934  4.505124
  S    -2.458808 -1.271680  3.004166
  S    -2.645315  2.249154  3.185892
  S     0.371000 -0.854760  0.076264
  S     0.175546  2.938608  0.279038
  S    -0.107486 -0.396986  4.146360
  S    -0.414235  3.477686  4.328864
