16  
    
  C    -3.206693 -1.951267  1.851007
  C    -3.656995  1.788259  2.082754
  C    -4.361043 -2.618579  1.253558
  C    -4.720167  1.115330  1.329987
  N    -2.099666 -1.963204  1.085615
  N    -2.630006  2.139826  1.318678
  N    -4.309514 -2.721652 -0.059557
  N    -4.394656  0.727919  0.099494
  N    -5.023519 -2.122437  3.746252
  N    -5.613896  1.511260  3.677725
  S    -5.668846 -2.852605  2.392457
  S    -6.143264  0.667261  2.239564
  S    -2.702397 -2.403725 -0.450731
  S    -2.932108  1.458164 -0.209962
  S    -3.498948 -1.474838  3.559865
  S    -3.995794  2.141411  3.723306
