16  
    
  C    -5.474395 -2.110060  1.532380
  C    -5.252526  1.005193  1.413056
  C    -6.621088 -2.744737  0.905390
  C    -6.471674  0.549786  0.790577
  N    -4.414905 -1.968804  0.723023
  N    -4.219468  1.288220  0.573015
  N    -6.509129 -2.917879 -0.426211
  N    -6.434454  0.362413 -0.529854
  N    -7.128369 -2.545370  3.473272
  N    -7.112452  0.922100  3.320345
  S    -7.878103 -2.876163  2.057046
  S    -7.870892  0.439085  1.855129
  S    -4.933998 -2.428043 -0.782210
  S    -4.913368  0.934648 -0.964390
  S    -5.518991 -2.124442  3.245171
  S    -5.510329  1.363002  3.048699
