16  
    
  C    -2.883980 -1.784110  1.979962
  C    -2.764484  2.275049  1.953205
  C    -4.056106 -2.312579  1.278383
  C    -3.998624  2.083898  1.240932
  N    -1.770579 -1.666401  1.268818
  N    -1.674007  2.408691  1.205668
  N    -3.819920 -2.321651 -0.017941
  N    -3.816265  1.975061 -0.084544
  N    -4.730206 -2.149861  3.716773
  N    -4.579746  1.885934  3.767108
  S    -5.483107 -2.473613  2.210769
  S    -5.359404  1.677564  2.307085
  S    -2.222960 -1.878142 -0.296394
  S    -2.167148  2.107905 -0.367894
  S    -3.163121 -1.689863  3.677769
  S    -2.979120  2.430719  3.723674
