16  
    
  C    -0.126362 -0.366603  2.629279
  C     0.081758  3.518056  2.347520
  C    -1.420944 -0.664558  2.043145
  C    -1.193544  3.181293  1.678450
  N     0.896507 -0.369903  1.779454
  N     1.107316  3.588087  1.500643
  N    -1.410748 -0.600717  0.728209
  N    -1.174058  3.278912  0.343329
  N    -1.861882 -0.393959  4.560229
  N    -1.579973  3.473269  4.264481
  S    -2.740300 -0.707646  3.159254
  S    -2.444129  3.040217  2.882334
  S     0.178107 -0.399537  0.241133
  S     0.445873  3.486786 -0.046960
  S    -0.255549 -0.172620  4.325841
  S     0.020679  3.728053  4.080923
