16  
    
  C    -4.153302 -2.343249  1.578079
  C    -4.282045  1.638335  1.953963
  C    -5.421969 -2.914430  1.075809
  C    -5.421615  1.151435  1.253871
  N    -3.132276 -2.336934  0.744712
  N    -3.213489  1.745943  1.166101
  N    -5.375249 -3.201868 -0.231489
  N    -5.185619  0.634927  0.019585
  N    -5.911083 -2.377595  3.474306
  N    -6.159813  1.551351  3.690468
  S    -6.755953 -2.754540  2.095153
  S    -6.839735  0.995161  2.309427
  S    -3.840335 -2.800385 -0.691625
  S    -3.591473  1.044398 -0.257081
  S    -4.344050 -1.981892  3.252983
  S    -4.579328  2.062245  3.649586
