16  
    
  C     1.066739  0.314079  3.028007
  C     0.493386  3.687844  2.980874
  C    -0.100320 -0.107364  2.273987
  C    -0.455275  3.053492  2.177858
  N     2.160978  0.478807  2.266032
  N     1.472402  4.244566  2.251302
  N     0.042864 -0.126077  0.926147
  N    -0.178301  3.012695  0.866019
  N    -0.804928 -0.142834  4.794579
  N    -1.453928  3.175307  4.553282
  S    -1.491686 -0.303227  3.273316
  S    -1.890486  2.531049  3.043034
  S     1.684108  0.216382  0.717791
  S     1.308583  3.696954  0.725687
  S     0.837997  0.254495  4.748749
  S     0.037583  3.774574  4.663213
