16  
    
  C    -1.055761 -0.394166  2.418407
  C    -1.143344  3.003124  2.361952
  C    -2.179194 -1.081734  1.744174
  C    -2.409835  2.836642  1.751369
  N     0.005815 -0.164590  1.641001
  N    -0.104749  3.109906  1.539650
  N    -2.054530 -1.150144  0.423226
  N    -2.323550  2.521979  0.473164
  N    -2.819229 -0.990874  4.233076
  N    -2.943421  3.172923  4.207076
  S    -3.503051 -1.444193  2.726785
  S    -3.759292  3.016773  2.794260
  S    -0.514952 -0.566263  0.075732
  S    -0.719445  2.661893  0.062651
  S    -1.232978 -0.469210  4.123392
  S    -1.312399  3.265543  4.121180
