16  
    
  C    -1.360391 -0.655560  1.833124
  C    -1.296720  3.352352  2.059739
  C    -2.677929 -1.181246  1.469062
  C    -2.441379  2.632932  1.513704
  N    -0.509159 -0.607238  0.825861
  N    -0.330165  3.637252  1.208021
  N    -2.785792 -1.402288  0.132498
  N    -2.405107  2.691390  0.209384
  N    -2.686713 -0.773665  3.991459
  N    -2.893673  2.873038  4.054286
  S    -3.656082 -1.493083  2.855064
  S    -3.614036  2.214549  2.694644
  S    -1.300738 -1.101317 -0.514794
  S    -0.935963  3.259238 -0.302235
  S    -1.191060 -0.259139  3.510508
  S    -1.432942  3.661374  3.780027
