16  
    
  C     1.471774  0.999883  3.222898
  C     1.623310  4.426686  3.441751
  C     0.275136  0.474300  2.660674
  C     0.327834  4.330062  2.868930
  N     2.482691  1.233279  2.395657
  N     2.607283  4.389738  2.554956
  N     0.379779  0.222278  1.335679
  N     0.324262  3.876764  1.626231
  N    -0.246526  0.908931  5.125828
  N    -0.016592  4.631460  5.312188
  S    -1.078592  0.461018  3.689801
  S    -0.929540  4.236733  4.041210
  S     1.904744  0.753164  0.905072
  S     1.958638  4.033603  1.067879
  S     1.331806  1.279362  4.917574
  S     1.601735  4.873879  5.108518
