16  
    
  C    -4.664503 -2.875791  1.537854
  C    -4.706528  0.989937  1.433566
  C    -5.983325 -2.993907  0.951144
  C    -5.931774  0.753333  0.726689
  N    -3.693517 -2.726665  0.613447
  N    -3.614206  1.049030  0.661804
  N    -5.975631 -3.143467 -0.384228
  N    -5.846771  0.725328 -0.609957
  N    -6.373880 -2.661217  3.471451
  N    -6.483134  0.773505  3.293069
  S    -7.329048 -2.961789  2.102823
  S    -7.283734  0.706705  1.829238
  S    -4.422964 -2.821673 -0.850768
  S    -4.114619  0.955498 -0.931556
  S    -4.764716 -2.470608  3.184091
  S    -4.840316  0.987686  3.166688
