16  
    
  C    -0.052468 -0.539638  2.435381
  C    -0.212920  3.303511  2.613554
  C    -1.247219 -1.007619  1.819907
  C    -1.415540  2.704462  2.014886
  N     0.986269 -0.540634  1.620188
  N     0.833574  3.417058  1.803916
  N    -1.250913 -0.981544  0.485321
  N    -1.269386  2.392116  0.721127
  N    -1.686952 -0.855932  4.341488
  N    -1.953572  2.857669  4.536283
  S    -2.454320 -1.278587  2.975888
  S    -2.655337  2.235884  3.170634
  S     0.388101 -0.808197  0.063372
  S     0.232941  2.942545  0.290848
  S    -0.063872 -0.410465  4.170169
  S    -0.408050  3.472965  4.296847
