16  
    
  C    -2.524450 -1.778830  1.928729
  C    -3.183788  2.095997  1.719630
  C    -3.819473 -1.960733  1.328440
  C    -4.229112  1.427865  0.984203
  N    -1.532656 -1.903080  1.043129
  N    -2.102923  2.374468  1.018045
  N    -3.805331 -2.190259  0.029255
  N    -3.999616  1.284031 -0.316365
  N    -4.291218 -1.645975  3.864168
  N    -5.026646  1.572933  3.420634
  S    -5.220139 -1.863804  2.503370
  S    -5.613177  0.986656  1.955222
  S    -2.218587 -2.120861 -0.442871
  S    -2.515164  1.883408 -0.533222
  S    -2.647059 -1.506607  3.640184
  S    -3.422911  2.231529  3.440812
