16  
    
  C     0.825576 -0.066265  2.805221
  C     0.512984  3.466241  2.951303
  C    -0.480548 -0.206065  2.219470
  C    -0.867592  3.560078  2.378448
  N     1.813510  0.066997  1.911216
  N     1.483557  3.886591  2.123443
  N    -0.433569 -0.300087  0.886765
  N    -0.793832  3.761432  1.046538
  N    -0.824104 -0.211515  4.841845
  N    -1.167302  3.000341  4.891613
  S    -1.678914 -0.455354  3.454237
  S    -2.150478  3.168459  3.497716
  S     1.151970 -0.130749  0.374879
  S     0.752487  3.909692  0.617385
  S     0.791959 -0.003894  4.566398
  S     0.419325  3.361615  4.676132
