16  
    
  C    -0.803976 -0.801286  2.365155
  C    -0.781412  3.149598  2.431531
  C    -1.936487 -1.338354  1.717975
  C    -1.982992  2.659175  1.823982
  N     0.200057 -0.470664  1.543269
  N     0.195122  3.237867  1.555568
  N    -1.739058 -1.817992  0.454735
  N    -1.930696  2.395965  0.534816
  N    -2.740976 -0.905902  4.073274
  N    -2.437162  2.765924  4.399100
  S    -3.395492 -1.537246  2.681219
  S    -3.289158  2.592387  2.989469
  S    -0.186608 -1.240058  0.068064
  S    -0.415190  2.868287  0.066587
  S    -1.153797 -0.491795  4.024762
  S    -0.830192  3.250487  4.160964
