16  
    
  C     2.727729  1.145061  3.568174
  C     2.913839  5.039491  3.634974
  C     1.559581  0.777258  2.832920
  C     1.590317  4.854408  3.029144
  N     3.759454  1.575930  2.847461
  N     3.930018  4.819410  2.801236
  N     1.722953  0.812377  1.520490
  N     1.639440  4.842285  1.693517
  N     0.798730  0.834795  5.306331
  N     1.234645  5.450937  5.498769
  S     0.122203  0.481357  3.841400
  S     0.315553  5.200792  4.129004
  S     3.297096  1.388275  1.252234
  S     3.283652  4.902908  1.331383
  S     2.414028  1.057898  5.246594
  S     2.898704  5.280807  5.316741
