16  
    
  C     3.795412  1.899562  3.719249
  C     3.593286  5.298444  3.556507
  C     2.595999  1.542342  2.924416
  C     2.360322  4.933536  2.905447
  N     4.861180  2.176315  3.018106
  N     4.614454  5.632248  2.774318
  N     2.781117  1.395894  1.612051
  N     2.469803  5.016683  1.560990
  N     1.861106  1.799084  5.466420
  N     1.775690  5.183020  5.484755
  S     1.212843  1.627043  3.912563
  S     1.034657  4.891441  4.071785
  S     4.386721  1.941180  1.397648
  S     4.071079  5.370813  1.207616
  S     3.478403  2.282814  5.417576
  S     3.387510  5.427914  5.313453
