16  
    
  C    -1.391854 -0.947805  2.234410
  C    -1.497091  2.989152  2.007684
  C    -2.508756 -1.367885  1.480970
  C    -2.566890  2.248164  1.349735
  N    -0.288673 -0.775942  1.511668
  N    -0.455058  3.188087  1.238002
  N    -2.399817 -1.356137  0.141647
  N    -2.437780  2.035325  0.051710
  N    -3.168035 -1.311965  3.972425
  N    -3.316529  2.471183  3.827673
  S    -3.867043 -1.643974  2.531411
  S    -3.877942  1.707012  2.443681
  S    -0.750552 -1.010585 -0.073845
  S    -0.928415  2.690652 -0.292502
  S    -1.583813 -0.757284  3.963248
  S    -1.915609  3.334446  3.627551
