16  
    
  C    -0.231206 -0.464123  2.677190
  C     0.104647  3.304154  2.498545
  C    -1.307985 -0.931375  1.907101
  C    -1.173968  2.980407  1.752999
  N     0.876349 -0.195564  1.964026
  N     1.158431  3.555093  1.708505
  N    -1.122184 -0.970806  0.586711
  N    -0.922846  2.768265  0.465394
  N    -2.089451 -0.794071  4.405983
  N    -1.711908  2.975450  4.252232
  S    -2.618075 -1.405953  2.939943
  S    -2.392874  2.320860  2.862194
  S     0.507694 -0.525613  0.345635
  S     0.596712  3.316374  0.152123
  S    -0.467014 -0.334549  4.433128
  S    -0.182383  3.498683  4.151609
