16  
    
  C     0.828693  0.414157  3.052670
  C     0.509253  4.023371  2.914037
  C    -0.439226  0.055925  2.440646
  C    -0.727049  3.381390  2.413414
  N     1.841684  0.480925  2.210667
  N     1.555662  3.847380  2.075900
  N    -0.301924 -0.175001  1.131011
  N    -0.625231  3.024870  1.095095
  N    -0.975107  0.255135  4.866821
  N    -1.168477  3.811798  4.898266
  S    -1.809972  0.133151  3.455312
  S    -1.932626  3.326823  3.572790
  S     1.235439  0.118847  0.691620
  S     0.884280  3.364912  0.643223
  S     0.641150  0.647865  4.728723
  S     0.483305  4.160810  4.701028
