16  
    
  C     1.468824  1.011868  3.315493
  C     1.446048  4.310870  3.426201
  C     0.243438  0.584479  2.771713
  C     0.134887  4.192119  2.902563
  N     2.486290  1.016089  2.457426
  N     2.363865  4.496962  2.452923
  N     0.333034  0.223302  1.472457
  N     0.055707  3.954398  1.593246
  N    -0.249255  0.807126  5.281137
  N    -0.044286  4.660818  5.415957
  S    -1.082894  0.526041  3.862826
  S    -1.022241  4.169476  4.178571
  S     1.899664  0.503134  1.026018
  S     1.611474  4.230810  1.061169
  S     1.326680  1.319630  4.975008
  S     1.522636  4.795878  5.124431
