16  
    
  C     3.299413  1.492114  3.583847
  C     3.091029  5.164591  3.425888
  C     2.065737  1.010967  3.009938
  C     2.001775  4.435703  2.734765
  N     4.288772  1.588867  2.718982
  N     4.045917  5.505058  2.564801
  N     2.052162  0.806266  1.688529
  N     2.140187  4.321773  1.444030
  N     1.722333  1.408175  5.581085
  N     1.146867  5.005697  5.088517
  S     0.829783  0.983457  4.286904
  S     0.604045  4.159903  3.755060
  S     3.645960  1.199557  1.254361
  S     3.662958  4.973211  1.093962
  S     3.243529  1.956724  5.260294
  S     2.776937  5.418687  5.136420
