16  
    
  C     2.264520  1.010207  3.467390
  C     2.155005  4.746117  3.170656
  C     1.018210  0.655649  2.860887
  C     0.916862  4.499790  2.521668
  N     3.267293  1.179244  2.570780
  N     3.106603  5.135109  2.322272
  N     1.000615  0.620547  1.522097
  N     1.014046  4.395090  1.201117
  N     0.465665  0.896837  5.310144
  N     0.460851  4.324762  5.125759
  S    -0.271771  0.474597  3.977764
  S    -0.293206  4.063896  3.570480
  S     2.500958  0.971985  1.055942
  S     2.489168  4.933354  0.789551
  S     2.033111  1.385245  5.217616
  S     2.084028  4.685206  4.910219
