16  
    
  C     1.164918  0.238312  3.061563
  C     0.560177  3.711637  3.123314
  C    -0.058652 -0.164166  2.310223
  C    -0.535984  3.242340  2.245813
  N     2.227244  0.330504  2.260198
  N     1.600531  4.170622  2.421158
  N     0.093934 -0.311544  1.023508
  N    -0.122721  3.030870  1.001683
  N    -0.735673 -0.023241  4.832492
  N    -1.352561  3.078802  4.662351
  S    -1.486763 -0.311616  3.351421
  S    -1.889695  2.536683  3.135201
  S     1.723902  0.014241  0.699207
  S     1.318442  3.867590  0.837729
  S     0.899203  0.457156  4.794334
  S     0.091985  3.795388  4.733998
