16  
    
  C    -0.340669 -0.124090  2.536232
  C    -0.346250  3.252305  2.524323
  C    -1.410813 -0.853505  1.800578
  C    -1.585148  2.770513  2.001482
  N     0.767278  0.006062  1.828952
  N     0.604226  3.473043  1.634065
  N    -1.206339 -1.088194  0.529073
  N    -1.573453  2.678296  0.678972
  N    -2.135782 -0.610758  4.288037
  N    -2.057379  3.203117  4.524965
  S    -2.778949 -1.000077  2.799052
  S    -2.904418  2.838460  3.095224
  S     0.415632 -0.552412  0.277279
  S    -0.017601  2.999752  0.169389
  S    -0.563173 -0.097175  4.297884
  S    -0.432045  3.491297  4.254539
