16  
    
  C    -3.732355 -2.370796  1.711589
  C    -3.415101  1.780812  1.659809
  C    -4.977692 -2.702532  1.042141
  C    -4.558381  1.208198  1.052822
  N    -2.699911 -2.212386  0.897496
  N    -2.405114  1.878453  0.822290
  N    -4.841920 -2.709933 -0.297886
  N    -4.417005  0.868524 -0.200192
  N    -5.464909 -2.868739  3.581088
  N    -5.108464  1.474783  3.492192
  S    -6.359610 -2.816349  2.131551
  S    -5.834324  0.803414  2.178644
  S    -3.261644 -2.427446 -0.639362
  S    -2.861775  1.262634 -0.564518
  S    -3.821853 -2.646476  3.422544
  S    -3.589271  2.091122  3.292676
