16  
    
  C     3.313140  1.470253  3.443923
  C     3.211567  4.922953  3.571805
  C     1.997928  1.339339  2.876986
  C     1.910264  4.718853  2.931461
  N     4.251588  1.522063  2.483285
  N     4.168086  5.093546  2.657179
  N     1.973649  1.222997  1.539890
  N     1.926236  4.429094  1.631753
  N     1.715205  1.794098  5.416738
  N     1.412403  5.022994  5.379791
  S     0.713006  1.565795  4.067408
  S     0.573062  4.696797  3.970595
  S     3.571741  1.356044  1.056639
  S     3.516050  4.684714  1.170174
  S     3.370367  1.581002  5.180430
  S     3.067440  5.397436  5.236783
