16  
    
  C    -3.977772 -1.723485  1.705766
  C    -3.860382  1.529776  1.692867
  C    -5.176694 -2.198759  1.017009
  C    -5.118064  1.287588  1.109539
  N    -2.910013 -1.753167  0.877494
  N    -2.792867  1.590162  0.881406
  N    -5.056888 -2.536671 -0.272417
  N    -5.025583  1.118251 -0.207150
  N    -5.789390 -2.013955  3.521571
  N    -5.627433  1.502870  3.637924
  S    -6.558151 -2.272291  2.100694
  S    -6.512213  1.371077  2.274109
  S    -3.469606 -2.334545 -0.586225
  S    -3.478347  1.345812 -0.698962
  S    -4.198426 -1.614466  3.386811
  S    -4.002774  1.708244  3.478074
