16  
    
  C    -5.815743 -2.756743  1.188183
  C    -5.686658  0.878922  1.543868
  C    -7.033443 -3.168231  0.592408
  C    -6.899363  0.509084  0.864775
  N    -4.837937 -2.574446  0.307612
  N    -4.542277  1.008799  0.810290
  N    -6.974386 -3.257876 -0.719729
  N    -6.730474  0.247330 -0.435989
  N    -7.357530 -3.310497  3.161396
  N    -7.558768  0.544253  3.379446
  S    -8.250009 -3.589334  1.787385
  S    -8.240386  0.203485  1.900788
  S    -5.420207 -2.870516 -1.165709
  S    -5.119300  0.589989 -0.722900
  S    -5.904425 -2.509783  2.912152
  S    -5.953206  1.057096  3.238240
