16  
    
  C    -3.258179 -2.211832  1.910434
  C    -3.793170  1.951979  1.942473
  C    -4.464808 -2.643091  1.275244
  C    -4.676335  1.006144  1.329547
  N    -2.230890 -1.968042  1.091137
  N    -2.718532  2.281401  1.225484
  N    -4.243853 -2.946249  0.035262
  N    -4.374724  0.776559  0.056262
  N    -5.106905 -2.272368  3.704355
  N    -5.617864  1.461145  3.654007
  S    -5.794079 -2.896543  2.307281
  S    -6.024202  0.611472  2.320323
  S    -2.715436 -2.510384 -0.370367
  S    -2.976486  1.607628 -0.265464
  S    -3.611161 -1.596929  3.493637
  S    -4.174134  2.223846  3.634692
