16  
    
  C    -4.322881 -2.360576  1.486815
  C    -4.302049  1.578906  1.961436
  C    -5.506741 -2.893734  0.831401
  C    -5.525610  1.035084  1.368463
  N    -3.237545 -2.314716  0.747259
  N    -3.298774  1.795135  1.097654
  N    -5.398018 -2.948071 -0.510659
  N    -5.412863  0.775279  0.086300
  N    -6.132802 -2.622520  3.256458
  N    -6.067629  1.260956  3.893496
  S    -6.782115 -3.303368  1.860128
  S    -6.832991  0.747948  2.549288
  S    -3.758740 -2.688321 -0.776726
  S    -3.844488  1.241501 -0.365474
  S    -4.512187 -2.277662  3.267250
  S    -4.580142  1.831461  3.677678
