16  
    
  C    -4.002607 -2.126772  1.711748
  C    -4.016727  1.488001  1.709275
  C    -5.326326 -2.404946  1.166409
  C    -5.282312  1.317398  1.018081
  N    -2.949188 -2.106778  0.844646
  N    -2.989048  1.445167  0.868792
  N    -5.271203 -2.409692 -0.158165
  N    -5.178262  1.106805 -0.282987
  N    -5.717533 -1.784621  3.602426
  N    -5.765144  1.598145  3.466071
  S    -6.649906 -2.281340  2.288416
  S    -6.646831  1.333835  2.098773
  S    -3.713836 -2.247617 -0.633177
  S    -3.577590  1.145106 -0.612304
  S    -4.087273 -1.761043  3.423928
  S    -4.094150  1.669928  3.400085
