16  
    
  C     2.573021  1.188901  3.349408
  C     2.731297  5.171964  3.680861
  C     1.452061  0.590815  2.666861
  C     1.493091  4.578715  3.175407
  N     3.635149  1.361325  2.576840
  N     3.754090  5.135114  2.840561
  N     1.692648  0.305865  1.388599
  N     1.530473  4.238083  1.904111
  N     0.548961  0.896713  5.013447
  N     1.130952  4.954889  5.630985
  S    -0.031041  0.532274  3.508122
  S     0.292830  4.251503  4.361435
  S     3.239051  0.838951  1.058667
  S     3.065693  4.575517  1.398806
  S     2.202500  1.390165  5.050220
  S     2.612038  5.619591  5.402007
