16  
    
  C     2.722333  1.124239  3.530668
  C     2.957823  4.800563  3.687439
  C     1.556188  0.680654  2.787488
  C     1.639867  4.978053  3.092386
  N     3.740063  1.540786  2.779173
  N     3.951579  4.909448  2.799544
  N     1.721209  0.762272  1.475037
  N     1.632915  4.881519  1.770223
  N     0.747411  0.841508  5.186369
  N     1.280237  5.522125  5.512273
  S     0.105906  0.400925  3.678693
  S     0.336399  5.268477  4.185310
  S     3.202074  1.347685  1.197164
  S     3.171993  4.804117  1.282609
  S     2.422580  1.060587  5.286913
  S     2.919096  5.359301  5.370917
