16  
    
  C     2.753686  1.121758  3.570197
  C     2.938181  4.931271  3.669061
  C     1.581781  0.738168  2.838997
  C     1.622619  4.889516  3.054162
  N     3.729290  1.569182  2.756734
  N     3.936637  4.848185  2.789153
  N     1.725549  0.793229  1.523099
  N     1.631532  4.863879  1.725425
  N     0.768684  0.838013  5.260216
  N     1.268732  5.479528  5.466700
  S     0.102407  0.450563  3.780225
  S     0.310323  5.227987  4.148458
  S     3.275623  1.383306  1.246304
  S     3.232676  4.869005  1.327895
  S     2.412531  1.051971  5.251483
  S     2.911600  5.312369  5.334047
