16  
    
  C     1.511274  0.712120  2.885630
  C     0.851483  3.857038  2.542946
  C     0.267269  0.242074  2.293685
  C    -0.322895  3.572223  1.842961
  N     2.594781  0.638209  2.122232
  N     1.892959  4.165480  1.757216
  N     0.481288 -0.160892  1.019705
  N    -0.071876  3.382572  0.530549
  N    -0.328158  0.788645  4.633361
  N    -0.888556  3.668032  4.362694
  S    -1.147187  0.295206  3.283165
  S    -1.626191  3.166085  2.881092
  S     2.075839  0.009907  0.714484
  S     1.507130  3.729039  0.252689
  S     1.282591  1.078768  4.589798
  S     0.704716  4.052106  4.314953
