16  
    
  C     0.869698  0.059871  2.850432
  C     0.456191  3.829182  3.004480
  C    -0.421159 -0.294133  2.260068
  C    -0.882823  3.566778  2.356177
  N     1.844603  0.232290  1.980543
  N     1.426280  3.807937  2.107604
  N    -0.379786 -0.476102  0.940846
  N    -0.865338  3.678870  1.008253
  N    -0.767335 -0.143485  4.757255
  N    -1.120753  3.126031  4.895038
  S    -1.734803 -0.293863  3.363241
  S    -2.083507  3.263145  3.558503
  S     1.182604 -0.077504  0.488881
  S     0.755497  3.951703  0.622373
  S     0.866416  0.127184  4.570175
  S     0.494312  3.312050  4.661995
