16  
    
  C    -1.444074 -1.259791  2.146357
  C    -1.722402  2.247320  1.900596
  C    -2.777197 -1.386879  1.524719
  C    -3.030710  2.095737  1.344153
  N    -0.406914 -1.356433  1.347217
  N    -0.695523  2.378761  1.065029
  N    -2.711437 -1.473174  0.244215
  N    -2.978148  2.002623  0.013215
  N    -3.229173 -1.026521  4.052798
  N    -3.449547  2.325111  3.854693
  S    -4.048822 -1.177229  2.657806
  S    -4.286385  1.801026  2.506133
  S    -1.120993 -1.436314 -0.217678
  S    -1.386386  2.260061 -0.443553
  S    -1.610476 -0.780837  3.828386
  S    -1.784566  2.504090  3.630469
