16  
    
  C    -5.858297 -2.707396  1.238193
  C    -5.672034  0.812300  1.536394
  C    -7.062131 -3.096700  0.575777
  C    -6.844260  0.391084  0.868867
  N    -4.778334 -2.546072  0.489271
  N    -4.585147  0.882558  0.730865
  N    -6.965601 -3.151682 -0.741542
  N    -6.642111  0.312372 -0.447194
  N    -7.402951 -3.273570  3.188414
  N    -7.419224  0.489229  3.324886
  S    -8.303578 -3.451154  1.821205
  S    -8.210166  0.300720  1.881684
  S    -5.316244 -2.836465 -1.080379
  S    -5.056884  0.570928 -0.811698
  S    -5.984919 -2.492326  2.924850
  S    -5.924351  1.109081  3.299332
