16  
    
  C    -4.662748 -2.503139  1.566344
  C    -4.714649  1.004367  1.430802
  C    -5.977807 -2.871927  1.040424
  C    -5.922659  0.660145  0.727975
  N    -3.722692 -2.487160  0.651702
  N    -3.680393  1.012174  0.630076
  N    -5.976221 -3.170345 -0.243756
  N    -5.774354  0.670473 -0.615405
  N    -6.373879 -2.592710  3.552765
  N    -6.616093  0.915036  3.282714
  S    -7.267039 -3.033234  2.193550
  S    -7.288297  0.459228  1.794033
  S    -4.440066 -2.981543 -0.773905
  S    -4.218086  0.956897 -0.926723
  S    -4.698827 -2.433154  3.247322
  S    -4.907935  1.152257  3.181523
