16  
    
  C    -0.534350 -0.299342  2.658844
  C    -0.339658  3.278562  2.722179
  C    -1.826723 -0.734415  2.039525
  C    -1.421037  2.686782  2.043007
  N     0.529878 -0.332766  1.839127
  N     0.661014  3.492793  1.862391
  N    -1.757635 -0.851934  0.714113
  N    -1.220551  2.209926  0.820477
  N    -2.284312 -0.691511  4.515705
  N    -2.251703  3.117154  4.482835
  S    -3.149647 -1.031121  3.091553
  S    -2.758293  2.293891  3.099114
  S    -0.124237 -0.642880  0.288602
  S     0.307969  2.770783  0.413850
  S    -0.734806 -0.134365  4.362266
  S    -0.685433  3.789146  4.370385
