16  
    
  C    -2.031309 -1.015993  2.002923
  C    -2.622054  2.674063  2.051831
  C    -3.189114 -1.675160  1.447093
  C    -3.828100  2.076325  1.493415
  N    -1.042940 -0.775821  1.109383
  N    -1.627214  2.761830  1.169879
  N    -3.045529 -1.939063  0.142702
  N    -3.751109  1.843899  0.195609
  N    -3.543037 -1.880095  3.985920
  N    -4.314925  2.491460  4.006584
  S    -4.360310 -2.170743  2.569099
  S    -5.096751  1.887371  2.649840
  S    -1.623589 -1.288966 -0.383804
  S    -2.166990  2.148862 -0.221778
  S    -2.214856 -0.892450  3.778234
  S    -2.708578  2.867513  3.821463
