16  
    
  C    -1.367542 -0.960636  2.208728
  C    -1.504770  3.014548  2.008933
  C    -2.526800 -1.344303  1.468787
  C    -2.566306  2.221043  1.361001
  N    -0.294066 -0.768174  1.496396
  N    -0.449245  3.211273  1.231041
  N    -2.394009 -1.366738  0.151814
  N    -2.446789  2.066176  0.051037
  N    -3.155986 -1.275735  3.960328
  N    -3.322711  2.486869  3.836009
  S    -3.857110 -1.647814  2.531184
  S    -3.874334  1.725519  2.439549
  S    -0.770203 -1.008051 -0.077471
  S    -0.930676  2.705355 -0.299569
  S    -1.568375 -0.755901  3.961200
  S    -1.912303  3.341279  3.625963
