16  
    
  C    -3.015469 -1.733327  1.913452
  C    -3.418473  1.527501  2.116522
  C    -4.247649 -2.262933  1.353384
  C    -4.650805  1.193768  1.484448
  N    -2.084008 -1.511461  1.017945
  N    -2.330364  1.544866  1.346096
  N    -4.190415 -2.663660  0.061745
  N    -4.541774  0.948881  0.192464
  N    -4.607140 -2.065408  3.920862
  N    -5.266064  1.459809  3.897668
  S    -5.517374 -2.358060  2.559822
  S    -6.032217  1.179159  2.469177
  S    -2.713088 -2.096240 -0.485537
  S    -2.933262  1.104178 -0.163485
  S    -3.045664 -1.510603  3.689213
  S    -3.658154  1.814970  3.800570
