16  
    
  C    -5.055326 -2.540792  1.955239
  C    -5.402759  1.162240  1.674944
  C    -6.240580 -3.004434  1.304565
  C    -6.634893  0.943650  1.050487
  N    -3.972278 -2.675577  1.179258
  N    -4.365624  1.094603  0.842588
  N    -6.092961 -3.330108  0.018484
  N    -6.570211  0.767146 -0.272290
  N    -6.758904 -2.734200  3.774233
  N    -7.226937  1.011582  3.591715
  S    -7.607545 -2.781208  2.332204
  S    -8.007767  0.706823  2.114955
  S    -4.520962 -3.049786 -0.317640
  S    -4.962037  0.736677 -0.649566
  S    -5.164257 -2.133028  3.631600
  S    -5.569520  1.270389  3.362447
