16  
    
  C    -3.545980 -2.524242  1.904178
  C    -3.651137  1.870180  1.872597
  C    -4.655507 -3.092761  1.209194
  C    -4.673986  1.027399  1.239293
  N    -2.433269 -2.431346  1.144767
  N    -2.718825  2.231546  0.981104
  N    -4.551723 -3.112181 -0.144545
  N    -4.364430  0.650974 -0.004508
  N    -5.460352 -2.561041  3.678220
  N    -5.379093  1.491194  3.668384
  S    -6.036855 -3.338443  2.335197
  S    -5.940905  0.608129  2.330765
  S    -2.959774 -2.712757 -0.429327
  S    -2.990644  1.473786 -0.425451
  S    -3.844894 -2.231537  3.561229
  S    -3.875367  2.245758  3.536564
