16  
    
  C    -2.096395 -0.904737  2.301041
  C    -2.220852  2.473447  1.950058
  C    -3.274429 -1.392443  1.677904
  C    -3.463366  2.110814  1.353618
  N    -1.050141 -0.766249  1.459457
  N    -1.279396  2.591694  1.032545
  N    -3.128700 -1.700991  0.375796
  N    -3.454969  1.725822  0.060335
  N    -3.891538 -1.140882  4.079130
  N    -3.886593  2.375994  3.938356
  S    -4.681358 -1.379175  2.633257
  S    -4.741273  1.986901  2.548765
  S    -1.575259 -1.300107  0.008305
  S    -1.892371  2.054866 -0.410059
  S    -2.282050 -0.785023  3.986461
  S    -2.264477  2.676073  3.706267
