16  
    
  C    -2.666564 -1.879872  2.000639
  C    -2.959510  2.202840  1.809882
  C    -3.898175 -2.046663  1.259939
  C    -4.039750  1.543374  1.104215
  N    -1.634885 -1.861571  1.176801
  N    -1.952505  2.584215  1.038783
  N    -3.795872 -2.198023 -0.059785
  N    -3.891314  1.529860 -0.203153
  N    -4.499261 -1.844056  3.807013
  N    -4.839122  1.687932  3.615218
  S    -5.244362 -2.062179  2.316739
  S    -5.475059  1.357022  2.092339
  S    -2.126534 -2.190477 -0.354692
  S    -2.437579  2.309748 -0.522237
  S    -2.851114 -1.747363  3.716263
  S    -3.280133  2.321595  3.505440
