16  
    
  C    -2.142408 -0.925276  2.303889
  C    -2.036448  2.302975  1.960583
  C    -3.404869 -1.262001  1.668395
  C    -3.298959  2.014192  1.387038
  N    -1.094661 -0.856598  1.473427
  N    -0.990802  2.434277  1.128384
  N    -3.279730 -1.435420  0.338674
  N    -3.185957  1.733944  0.085292
  N    -3.881813 -1.184383  4.138620
  N    -3.815198  2.375058  3.864391
  S    -4.733848 -1.222165  2.744303
  S    -4.607453  1.849926  2.485687
  S    -1.656166 -1.304571  0.007227
  S    -1.639098  2.122204 -0.340019
  S    -2.296958 -0.650618  4.005669
  S    -2.154944  2.508417  3.712677
