16  
    
  C     3.645253  1.795380  3.627354
  C     3.197924  5.180167  3.451979
  C     2.410053  1.339351  3.030638
  C     1.993513  4.766286  2.825510
  N     4.604458  1.962642  2.756711
  N     4.185736  5.554062  2.704854
  N     2.453486  1.314711  1.697727
  N     2.151802  4.536030  1.511950
  N     2.031863  1.272773  5.529609
  N     1.449355  5.113250  5.310543
  S     1.107679  1.197472  4.163014
  S     0.729462  4.426464  3.991724
  S     3.939865  1.730664  1.216196
  S     3.637957  5.163343  1.177437
  S     3.466826  2.108503  5.348936
  S     3.106716  5.376344  5.115610
