16  
    
  C    -1.409407 -1.165691  2.188956
  C    -1.778869  2.411072  1.955771
  C    -2.744417 -1.265829  1.556539
  C    -3.020844  2.039148  1.361711
  N    -0.425198 -1.201574  1.308979
  N    -0.773347  2.373934  1.082033
  N    -2.682234 -1.508142  0.277857
  N    -3.038103  1.997559  0.009521
  N    -3.204284 -1.087691  4.109099
  N    -3.372240  2.158874  3.908447
  S    -4.071391 -1.191974  2.659547
  S    -4.253593  1.859466  2.548497
  S    -1.099561 -1.505516 -0.161039
  S    -1.435529  2.221444 -0.402300
  S    -1.530579 -0.827994  3.958658
  S    -1.798980  2.585117  3.688178
