16  
    
  C    -1.900952 -1.087232  2.137036
  C    -1.825272  2.338553  2.009718
  C    -3.232282 -1.221758  1.556632
  C    -2.964473  1.976242  1.257128
  N    -0.908424 -0.909416  1.269829
  N    -0.737774  2.380709  1.254996
  N    -3.138814 -1.495332  0.247701
  N    -2.820075  1.838904 -0.051319
  N    -3.565444 -0.974858  4.087333
  N    -3.672888  2.000878  3.799488
  S    -4.497709 -1.203171  2.709461
  S    -4.408585  1.890100  2.299289
  S    -1.546817 -1.275758 -0.161804
  S    -1.195270  2.107261 -0.302945
  S    -1.891354 -0.914032  3.856971
  S    -2.024931  2.406648  3.747612
