16  
    
  C    -1.018182 -0.689160  2.390514
  C    -0.701053  3.265832  2.728110
  C    -2.283038 -1.105619  1.718327
  C    -1.880404  2.664830  2.181208
  N    -0.027409 -0.545079  1.550563
  N     0.413722  3.241535  1.985975
  N    -2.076731 -1.396929  0.459301
  N    -1.742272  2.379790  0.882817
  N    -2.787578 -0.821585  4.264744
  N    -2.401531  3.094872  4.578252
  S    -3.554125 -1.171701  2.822301
  S    -3.248819  2.798622  3.249196
  S    -0.540014 -1.035655  0.061823
  S    -0.151490  2.673901  0.493560
  S    -1.162105 -0.420404  4.108011
  S    -0.809630  3.488849  4.503136
