16  
    
  C     1.790894  0.500123  3.030993
  C     1.903247  4.227098  3.336034
  C     0.494218  0.158645  2.458276
  C     0.626473  3.971780  2.672752
  N     2.776504  0.732281  2.139798
  N     2.928805  4.334024  2.500145
  N     0.537572  0.044739  1.117234
  N     0.662316  4.155676  1.344032
  N     0.243072  0.285199  4.999577
  N     0.127435  3.936390  5.238974
  S    -0.715184  0.135185  3.684353
  S    -0.724921  3.889342  3.802519
  S     2.054597  0.433622  0.682733
  S     2.284152  4.241403  0.971047
  S     1.826995  0.595021  4.750444
  S     1.823613  4.223925  4.997227
