16  
    
  C    -4.736239 -2.318867  1.501318
  C    -4.588389  0.957832  1.648772
  C    -5.966525 -2.790229  0.886861
  C    -5.813449  0.814501  0.913477
  N    -3.710282 -2.254746  0.640406
  N    -3.560511  1.154319  0.847572
  N    -5.888677 -2.883749 -0.454754
  N    -5.683718  0.797018 -0.423769
  N    -6.441161 -2.691346  3.413120
  N    -6.304093  0.705503  3.512044
  S    -7.292703 -3.054109  2.019451
  S    -7.102093  0.555182  2.071805
  S    -4.346743 -2.573511 -0.889135
  S    -4.086577  1.149273 -0.730044
  S    -4.835378 -2.516315  3.174322
  S    -4.697277  0.977512  3.382209
