16  
    
  C    -2.975404 -1.613163  1.975223
  C    -2.562701  2.021814  2.029638
  C    -4.033804 -2.225817  1.260152
  C    -3.863588  1.882297  1.360206
  N    -1.919466 -1.376067  1.203180
  N    -1.523186  2.176927  1.209268
  N    -3.883009 -2.295574 -0.065786
  N    -3.762006  1.697610  0.062206
  N    -4.737098 -2.240631  3.753846
  N    -4.426915  2.037365  3.811619
  S    -5.404998 -2.559580  2.242992
  S    -5.224532  1.948192  2.392170
  S    -2.281295 -1.843686 -0.345065
  S    -2.212514  2.065350 -0.327292
  S    -3.227830 -1.695175  3.755212
  S    -2.825746  2.432401  3.708907
