16  
    
  C    -3.227767 -2.190846  1.929352
  C    -3.796443  1.918503  1.951147
  C    -4.441165 -2.607100  1.289512
  C    -4.696921  1.023233  1.346032
  N    -2.217114 -1.962528  1.090438
  N    -2.722799  2.233047  1.218176
  N    -4.246716 -2.898531  0.019039
  N    -4.369483  0.776984  0.084987
  N    -5.094491 -2.246443  3.698156
  N    -5.612411  1.480777  3.648751
  S    -5.769910 -2.889723  2.327870
  S    -6.041420  0.612021  2.285984
  S    -2.715987 -2.493215 -0.387964
  S    -2.967141  1.591948 -0.247354
  S    -3.599978 -1.575724  3.488149
  S    -4.135537  2.216246  3.661652
