16  
    
  C    -4.310824 -2.378105  1.519091
  C    -4.337035  1.587055  1.945886
  C    -5.510211 -2.854691  0.831704
  C    -5.487497  0.978781  1.385397
  N    -3.214508 -2.320060  0.743604
  N    -3.273437  1.782812  1.125321
  N    -5.383277 -2.988920 -0.486336
  N    -5.363565  0.783463  0.086051
  N    -6.125973 -2.599547  3.286621
  N    -6.114591  1.285057  3.885896
  S    -6.769967 -3.282881  1.881404
  S    -6.825481  0.774010  2.519707
  S    -3.768418 -2.715552 -0.764410
  S    -3.845146  1.240613 -0.342246
  S    -4.495184 -2.271623  3.231840
  S    -4.574854  1.853045  3.675155
