16  
    
  C     2.362972  0.833894  3.528301
  C     1.928984  5.130765  3.052547
  C     1.069208  0.702963  2.918558
  C     0.900524  4.352977  2.465859
  N     3.355819  0.755032  2.641291
  N     2.949800  5.354033  2.259697
  N     1.074227  0.631618  1.593995
  N     1.102486  4.073749  1.191398
  N     0.615267  1.077841  5.476862
  N     0.112992  4.571119  4.775139
  S    -0.197400  0.498415  4.042709
  S    -0.549861  4.166233  3.383278
  S     2.609029  0.613649  1.190603
  S     2.546976  4.736617  0.772749
  S     2.285408  1.069177  5.240373
  S     1.629255  5.151039  4.741533
