16  
    
  C     1.382683  0.842746  3.371375
  C     1.207369  4.408003  3.157753
  C     0.163410  0.314234  2.869134
  C    -0.015622  3.969721  2.522989
  N     2.358015  0.899652  2.434118
  N     2.131561  4.594129  2.239453
  N     0.195500 -0.088297  1.589636
  N    -0.047917  4.111192  1.209778
  N    -0.251566  0.978585  5.311164
  N    -0.472060  4.191632  5.147149
  S    -1.115519  0.493536  4.022110
  S    -1.241666  3.766806  3.674549
  S     1.741616  0.292719  1.067382
  S     1.537089  4.417214  0.735998
  S     1.357579  1.178336  5.031108
  S     1.122611  4.574142  4.879911
