16  
    
  C    -4.736449 -2.759357  1.490881
  C    -4.658270  0.833861  1.405849
  C    -6.023195 -3.049957  0.945341
  C    -5.922101  0.630420  0.757918
  N    -3.726983 -2.750439  0.653555
  N    -3.603151  1.019822  0.637129
  N    -5.980633 -3.131015 -0.388497
  N    -5.745969  0.748859 -0.569556
  N    -6.400259 -2.591474  3.512871
  N    -6.512713  0.816424  3.268050
  S    -7.291488 -2.984479  2.131982
  S    -7.362671  0.685542  1.775044
  S    -4.403629 -2.900279 -0.880567
  S    -4.186486  0.977642 -0.900330
  S    -4.723559 -2.472066  3.257628
  S    -4.841908  1.058267  3.091454
