16  
    
  C     3.552399  2.149362  3.590072
  C     3.412618  5.330980  3.525712
  C     2.442517  1.595636  2.876860
  C     2.159262  4.932496  2.900673
  N     4.608588  2.271338  2.869867
  N     4.370409  5.605391  2.666622
  N     2.675276  1.337166  1.591483
  N     2.216116  4.820211  1.566017
  N     1.874570  1.742326  5.428660
  N     1.605692  4.900129  5.478841
  S     1.130559  1.321274  4.033310
  S     0.896946  4.553207  4.044874
  S     4.256594  1.699902  1.329842
  S     3.775369  5.138190  1.110043
  S     3.447007  2.170452  5.306711
  S     3.226807  5.352915  5.320555
