16  
    
  C     3.252637  1.642608  3.620387
  C     3.099653  5.107290  3.384492
  C     2.031047  1.134669  3.022863
  C     1.997834  4.562904  2.720580
  N     4.301046  1.628929  2.778671
  N     4.160685  5.370339  2.621475
  N     2.080117  0.832751  1.713452
  N     2.200832  4.303811  1.426416
  N     1.484590  1.467076  5.518325
  N     1.218691  4.954912  5.153505
  S     0.692522  0.996500  4.128272
  S     0.652765  4.177440  3.798578
  S     3.671929  1.079049  1.335515
  S     3.694456  4.987197  1.135701
  S     3.026462  2.054499  5.301450
  S     2.837924  5.352020  5.052062
