16  
    
  C    -1.782275 -1.028409  2.339671
  C    -1.872806  2.413910  2.506834
  C    -3.098827 -1.347449  1.789354
  C    -3.049033  1.928725  1.823026
  N    -0.745007 -1.081959  1.460450
  N    -0.806684  2.550884  1.745482
  N    -3.071779 -1.406334  0.438265
  N    -2.885692  1.792992  0.517205
  N    -3.329493 -1.198166  4.348531
  N    -3.697400  2.092772  4.297313
  S    -4.298578 -1.375156  3.067884
  S    -4.363868  1.622856  2.863110
  S    -1.445250 -1.356260 -0.023944
  S    -1.292644  2.242263  0.210574
  S    -1.748974 -0.692505  4.071607
  S    -2.105232  2.586650  4.253574
