16  
    
  C    -3.677842 -2.490541  1.717949
  C    -3.469667  1.815465  1.661166
  C    -4.948951 -2.679694  1.056769
  C    -4.576711  1.070261  1.101379
  N    -2.604830 -2.162573  0.924404
  N    -2.376772  1.921695  0.917580
  N    -4.812501 -2.841035 -0.257364
  N    -4.423291  0.805137 -0.215762
  N    -5.481170 -2.826546  3.622813
  N    -5.154573  1.504870  3.532089
  S    -6.299733 -2.917808  2.191725
  S    -5.821374  0.798541  2.194941
  S    -3.208459 -2.509956 -0.630494
  S    -2.881972  1.291096 -0.566076
  S    -3.845211 -2.616146  3.457187
  S    -3.631403  2.094999  3.382769
