16  
    
  C    -3.874373 -2.260769  1.675008
  C    -3.461580  1.786777  1.593142
  C    -5.128367 -2.484680  0.997220
  C    -4.715005  1.286856  0.966583
  N    -2.841076 -2.094590  0.837176
  N    -2.467856  2.117203  0.758855
  N    -5.132066 -2.290938 -0.339226
  N    -4.579907  1.064181 -0.351607
  N    -5.579647 -2.357892  3.518555
  N    -5.193163  1.588979  3.567969
  S    -6.452617 -2.747491  2.127145
  S    -5.882332  0.963996  2.194554
  S    -3.513188 -2.020925 -0.701816
  S    -3.064786  1.674078 -0.814320
  S    -3.944799 -2.553912  3.337839
  S    -3.642919  2.153194  3.318986
