16  
    
  C    -0.145174  0.114225  2.524134
  C     0.014676  3.619285  2.458186
  C    -1.383325 -0.492579  2.085108
  C    -1.241247  3.064463  1.890001
  N     0.809248  0.232780  1.605441
  N     0.932942  3.956783  1.559733
  N    -1.386825 -0.774317  0.787906
  N    -1.090833  2.702668  0.602581
  N    -1.651503 -0.341758  4.576349
  N    -1.708809  3.510221  4.366112
  S    -2.631544 -0.748241  3.264714
  S    -2.540865  2.927182  3.013685
  S     0.106356 -0.388856  0.200031
  S     0.449585  3.169814  0.167758
  S    -0.052734 -0.026984  4.225597
  S    -0.196396  4.029832  4.127532
