16  
    
  C     2.276999  1.076025  3.454239
  C     2.239323  4.806015  3.161198
  C     1.009488  0.690340  2.856154
  C     1.016387  4.292212  2.535756
  N     3.241878  1.266618  2.589667
  N     3.271147  4.992183  2.305998
  N     0.994606  0.632476  1.535596
  N     0.952904  4.427965  1.188047
  N     0.470656  0.832978  5.402559
  N     0.517216  4.273177  5.059977
  S    -0.310405  0.479460  3.921921
  S    -0.297096  4.006597  3.705051
  S     2.581895  1.031594  1.043649
  S     2.496906  4.967929  0.795756
  S     2.036773  1.349670  5.171304
  S     2.094199  4.693134  4.913615
