16  
    
  C     0.778053  0.361144  2.859062
  C     0.633113  3.574053  2.679616
  C    -0.382885 -0.255255  2.274824
  C    -0.649968  3.264657  2.162859
  N     1.745316  0.558313  2.003918
  N     1.616159  3.851801  1.851630
  N    -0.366213 -0.402059  0.950865
  N    -0.712372  3.450423  0.851727
  N    -0.808987  0.066339  4.777052
  N    -1.047683  3.235858  4.702812
  S    -1.699031 -0.407625  3.400517
  S    -1.937340  3.064757  3.318658
  S     1.175557  0.127282  0.516877
  S     0.905107  3.649219  0.317159
  S     0.748911  0.626692  4.589879
  S     0.613778  3.494983  4.416357
