16  
    
  C     1.402949  0.909871  3.288933
  C     1.251382  4.341807  3.103352
  C     0.129903  0.412125  2.814602
  C    -0.035586  4.088086  2.417084
  N     2.412718  0.927053  2.367620
  N     2.265559  4.616088  2.269937
  N     0.175703 -0.056384  1.566134
  N     0.029958  3.942335  1.104574
  N    -0.262715  0.950345  5.312431
  N    -0.583830  4.168997  4.879575
  S    -1.197797  0.411518  3.971243
  S    -1.366212  3.666528  3.515775
  S     1.687910  0.220871  0.960096
  S     1.565584  4.432260  0.720868
  S     1.349168  1.186567  5.043889
  S     1.040834  4.500722  4.868874
