16  
    
  C    -3.638136 -2.472464  1.782371
  C    -3.448444  1.750399  1.730626
  C    -4.873432 -2.780064  1.093251
  C    -4.559370  1.057802  1.088866
  N    -2.652200 -2.263134  0.951878
  N    -2.425711  1.977488  0.923393
  N    -4.779883 -2.902620 -0.240898
  N    -4.390422  0.725872 -0.180293
  N    -5.469062 -2.791831  3.627668
  N    -5.253404  1.517723  3.632204
  S    -6.229008 -3.008921  2.195096
  S    -5.868287  0.779114  2.237182
  S    -3.178224 -2.555343 -0.584821
  S    -2.872796  1.331808 -0.608106
  S    -3.836073 -2.561579  3.496419
  S    -3.668491  2.118070  3.463522
