16  
    
  C    -1.426289 -1.058692  2.448329
  C    -1.523868  2.831760  2.102242
  C    -2.511371 -1.458545  1.624861
  C    -2.553408  1.951280  1.494625
  N    -0.357310 -0.599989  1.732585
  N    -0.466071  3.093575  1.353621
  N    -2.214503 -1.627871  0.301289
  N    -2.249301  1.624769  0.262232
  N    -3.406842 -1.422349  4.044215
  N    -3.398653  2.460478  3.865008
  S    -3.953217 -1.798997  2.517309
  S    -3.928781  1.652432  2.490986
  S    -0.677189 -1.055017  0.180272
  S    -0.814733  2.397402 -0.140482
  S    -1.768297 -0.994403  4.138632
  S    -1.823391  3.018289  3.843710
