16  
    
  C    -1.415907 -1.028598  2.458003
  C    -1.502679  2.822989  2.121164
  C    -2.502983 -1.463626  1.591385
  C    -2.550353  2.004429  1.472229
  N    -0.380409 -0.619611  1.718428
  N    -0.492946  3.113174  1.338272
  N    -2.214597 -1.604449  0.292320
  N    -2.239842  1.635405  0.255844
  N    -3.394807 -1.433869  4.053230
  N    -3.390044  2.452610  3.853826
  S    -3.944929 -1.778306  2.489868
  S    -3.929068  1.644167  2.497812
  S    -0.688980 -1.055650  0.175628
  S    -0.815804  2.400435 -0.157705
  S    -1.755076 -0.978976  4.133358
  S    -1.834565  3.022916  3.812052
