16  
    
  C     1.378099  0.729854  2.921779
  C     0.935129  4.151034  2.562184
  C     0.190229  0.300483  2.280601
  C    -0.193728  3.510721  1.945827
  N     2.387245  1.036240  2.080188
  N     1.985103  4.293752  1.796571
  N     0.341287  0.149462  0.937642
  N     0.033633  3.387466  0.658670
  N    -0.264453  0.249945  4.896580
  N    -0.917587  3.724588  4.321643
  S    -1.088744  0.117096  3.457485
  S    -1.547115  3.153252  2.967177
  S     1.901334  0.669601  0.577682
  S     1.529083  3.937549  0.297468
  S     1.320145  0.753565  4.665951
  S     0.600427  4.361344  4.227375
