16  
    
  C    -1.812135 -0.856240  2.318316
  C    -1.917306  2.437355  2.587537
  C    -3.080079 -1.372877  1.831984
  C    -3.107669  2.063684  1.914212
  N    -0.820097 -0.912757  1.460305
  N    -0.827727  2.722109  1.818536
  N    -3.085147 -1.586678  0.544128
  N    -2.881644  1.830751  0.621828
  N    -3.447193 -1.224243  4.262961
  N    -3.748302  2.094294  4.404680
  S    -4.397326 -1.430021  2.950132
  S    -4.427384  1.671764  2.947081
  S    -1.538044 -1.354189  0.036631
  S    -1.294918  2.256124  0.314429
  S    -1.847281 -0.779916  4.069973
  S    -2.133984  2.471264  4.339438
