16  
    
  C    -5.365147 -2.478100  1.406795
  C    -5.367401  1.189791  1.304436
  C    -6.583898 -2.889259  0.794948
  C    -6.567754  0.677038  0.654330
  N    -4.416877 -2.249383  0.526692
  N    -4.400775  1.457117  0.454851
  N    -6.579581 -2.983571 -0.516536
  N    -6.384398  0.469329 -0.634538
  N    -7.014797 -2.800820  3.339616
  N    -7.171501  0.762455  3.144964
  S    -7.822240 -3.133555  1.953142
  S    -7.793942  0.075474  1.773725
  S    -5.079622 -2.515756 -0.955612
  S    -4.876018  0.996989 -1.033419
  S    -5.502759 -2.235243  3.110921
  S    -5.561939  1.186659  2.990773
