16  
    
  C    -1.960683 -1.043596  2.224426
  C    -2.303213  2.384657  1.970756
  C    -3.106950 -1.669341  1.557961
  C    -3.638739  2.085048  1.415448
  N    -0.956760 -0.940843  1.381923
  N    -1.370354  2.545445  1.046218
  N    -3.013503 -1.722561  0.227357
  N    -3.604579  1.828492  0.105562
  N    -3.838165 -1.080696  3.985880
  N    -3.981789  2.404592  3.916090
  S    -4.521086 -1.701260  2.616916
  S    -4.922108  2.017838  2.600807
  S    -1.477638 -1.225783 -0.171682
  S    -2.062216  2.152150 -0.381597
  S    -2.219798 -0.822852  3.970102
  S    -2.440401  2.878531  3.616810
