16  
    
  C    -2.841911 -1.577522  1.996401
  C    -2.396997  2.014584  2.024721
  C    -4.070800 -2.127179  1.446971
  C    -3.744635  1.950416  1.441570
  N    -1.884171 -1.324410  1.086031
  N    -1.400263  1.956373  1.122608
  N    -4.057688 -2.139030  0.109429
  N    -3.735068  1.623787  0.150470
  N    -4.561459 -2.032355  3.904944
  N    -4.064099  2.205252  3.909878
  S    -5.317163 -2.556905  2.538067
  S    -5.011233  2.112174  2.560455
  S    -2.548563 -1.615455 -0.402606
  S    -2.122502  1.588747 -0.307674
  S    -2.952830 -1.594621  3.765064
  S    -2.427474  2.374358  3.767855
