16  
    
  C     0.086830 -0.659146  2.429842
  C    -0.221877  3.150786  2.653332
  C    -1.210664 -0.873088  1.862631
  C    -1.418659  2.574161  2.066318
  N     1.102747 -0.558893  1.560129
  N     0.720093  3.290433  1.734664
  N    -1.202028 -1.132156  0.570967
  N    -1.420852  2.556595  0.727609
  N    -1.685756 -0.802850  4.403113
  N    -1.894669  2.871883  4.569913
  S    -2.514452 -1.262661  3.045741
  S    -2.669117  2.290122  3.167346
  S     0.397496 -0.897245  0.087296
  S     0.122553  2.926484  0.251836
  S    -0.094672 -0.365370  4.156637
  S    -0.365825  3.476351  4.376277
