16  
    
  C    -5.570265 -2.813919  1.578848
  C    -5.474630  0.982671  1.377489
  C    -6.782391 -3.020458  0.857882
  C    -6.663002  0.403580  0.760144
  N    -4.514646 -2.594745  0.829966
  N    -4.416875  1.202997  0.593390
  N    -6.602484 -3.257749 -0.446859
  N    -6.615743  0.209101 -0.539449
  N    -7.362026 -3.237994  3.297929
  N    -7.253839  0.549046  3.241340
  S    -8.136640 -3.257590  1.852921
  S    -8.008365  0.182249  1.844476
  S    -4.999787 -2.932086 -0.694798
  S    -5.080571  0.776883 -0.933338
  S    -5.851638 -2.550752  3.265612
  S    -5.710359  1.128592  3.070060
