16  
    
  C    -3.011216 -1.626091  2.275780
  C    -3.354427  1.844326  2.025522
  C    -4.283502 -1.923728  1.658205
  C    -4.604762  1.471285  1.465638
  N    -1.998445 -1.607381  1.436288
  N    -2.437636  2.053928  1.068806
  N    -4.210333 -1.924656  0.338154
  N    -4.614726  1.317900  0.149661
  N    -4.809001 -1.856735  4.101463
  N    -4.905657  1.339508  4.066182
  S    -5.648017 -1.830040  2.654932
  S    -5.791348  1.054515  2.674050
  S    -2.608879 -1.865992 -0.083386
  S    -3.097607  1.747476 -0.392830
  S    -3.140764 -1.625963  4.053650
  S    -3.305930  1.890381  3.794230
