16  
    
  C    -2.009028 -1.033937  2.008662
  C    -2.622394  2.682535  2.029889
  C    -3.202159 -1.647291  1.432771
  C    -3.817868  2.073188  1.501172
  N    -1.039144 -0.776663  1.114211
  N    -1.612665  2.752076  1.167060
  N    -3.044474 -1.935298  0.141761
  N    -3.750682  1.860092  0.197213
  N    -3.553891 -1.875049  3.990714
  N    -4.317472  2.491863  4.006105
  S    -4.353501 -2.162997  2.567126
  S    -5.095330  1.890967  2.641872
  S    -1.616907 -1.295840 -0.384811
  S    -2.168226  2.143319 -0.227658
  S    -2.208270 -0.885123  3.785813
  S    -2.699588  2.869765  3.813530
