16  
    
  C    -5.741024 -2.718977  1.174622
  C    -5.801212  0.877665  1.567106
  C    -6.885847 -3.446535  0.672246
  C    -6.973649  0.377880  0.885883
  N    -4.801239 -2.497167  0.259802
  N    -4.752512  1.145746  0.819763
  N    -6.960129 -3.535805 -0.668972
  N    -6.803899  0.209693 -0.406251
  N    -7.419032 -3.154635  3.154718
  N    -7.641221  0.708345  3.339542
  S    -8.163415 -3.757401  1.759110
  S    -8.278424  0.028783  1.965123
  S    -5.533166 -2.936415 -1.204562
  S    -5.200533  0.668261 -0.748538
  S    -5.812564 -2.687807  2.953660
  S    -5.951950  1.025151  3.344052
