16  
    
  C     1.102997  0.303518  3.041082
  C     0.436232  3.770269  2.999261
  C    -0.105787 -0.099678  2.294233
  C    -0.443452  2.979803  2.165289
  N     2.171883  0.463785  2.274961
  N     1.479156  4.201144  2.294764
  N     0.069212 -0.135096  0.963859
  N    -0.165429  3.045994  0.833596
  N    -0.775750 -0.111843  4.786220
  N    -1.465248  3.151193  4.549118
  S    -1.468088 -0.293566  3.276253
  S    -1.862917  2.529990  3.053082
  S     1.671084  0.168325  0.755656
  S     1.306467  3.724323  0.768705
  S     0.830890  0.276806  4.719966
  S     0.058215  3.792395  4.697730
