16  
    
  C    -1.781629 -1.115742  2.478584
  C    -1.875988  2.389680  2.563277
  C    -3.010738 -1.474853  1.883427
  C    -3.106889  2.155259  1.828166
  N    -0.741568 -0.907098  1.642193
  N    -0.867410  2.576516  1.737904
  N    -2.947572 -1.583136  0.555948
  N    -3.006939  2.024868  0.493589
  N    -3.608578 -1.238072  4.305076
  N    -3.686806  2.154195  4.380919
  S    -4.384414 -1.716899  2.884476
  S    -4.471670  1.976118  2.937882
  S    -1.368608 -1.267511  0.141559
  S    -1.425088  2.475767  0.197978
  S    -1.952803 -0.881353  4.199934
  S    -2.051118  2.466672  4.288991
