16  
    
  C    -2.109134 -1.087409  2.022342
  C    -2.674085  2.569737  2.121821
  C    -3.206079 -1.862938  1.438839
  C    -3.869513  2.040062  1.545828
  N    -1.189205 -0.639107  1.153375
  N    -1.657577  2.826953  1.314286
  N    -3.093256 -1.994437  0.114262
  N    -3.696760  1.689843  0.292721
  N    -3.579999 -1.865828  3.935697
  N    -4.378718  2.435589  4.071076
  S    -4.442388 -2.270671  2.597535
  S    -5.121742  1.834636  2.729126
  S    -1.669987 -1.227235 -0.327733
  S    -2.189250  2.243428 -0.203325
  S    -2.209581 -0.913966  3.708356
  S    -2.767872  2.852661  3.849896
