16  
    
  C     1.973704  0.635546  3.167201
  C     1.829107  4.347872  3.104198
  C     0.652088  0.412028  2.606583
  C     0.549670  3.951632  2.493346
  N     2.973645  0.596174  2.280738
  N     2.878650  4.168746  2.300454
  N     0.676255  0.245720  1.293255
  N     0.655618  3.853544  1.150736
  N     0.410382  0.667589  5.202941
  N     0.217057  4.299035  5.078382
  S    -0.579567  0.228065  3.912937
  S    -0.681897  4.013535  3.677762
  S     2.218065  0.297840  0.829109
  S     2.255863  4.015035  0.779727
  S     1.990228  0.773709  4.905847
  S     1.860306  4.438136  4.845835
