16  
    
  C     3.548366  2.160436  3.583100
  C     3.428504  5.307527  3.513542
  C     2.446406  1.596310  2.880509
  C     2.163005  4.958430  2.912172
  N     4.603623  2.276354  2.855149
  N     4.380923  5.613229  2.664692
  N     2.689877  1.339593  1.597235
  N     2.220508  4.825341  1.578386
  N     1.861380  1.773252  5.424927
  N     1.613728  4.894569  5.488292
  S     1.138334  1.330342  4.018445
  S     0.911074  4.560978  4.043075
  S     4.268346  1.703796  1.339204
  S     3.781831  5.141349  1.115285
  S     3.446811  2.171188  5.312793
  S     3.228480  5.353785  5.324554
