16  
    
  C    -0.950572 -0.576630  2.424251
  C    -0.483475  3.262155  2.901135
  C    -2.127381 -0.871042  1.756515
  C    -1.743817  2.739223  2.271666
  N     0.144474 -0.623069  1.651448
  N     0.565008  3.247774  2.104139
  N    -2.007257 -1.017341  0.443290
  N    -1.650629  2.685776  0.947295
  N    -2.713439 -0.631886  4.276180
  N    -2.339534  3.302262  4.657088
  S    -3.451652 -1.171876  2.856326
  S    -3.116632  2.727262  3.343815
  S    -0.424204 -0.868128  0.105696
  S    -0.043884  2.827288  0.574382
  S    -1.054723 -0.462593  4.156195
  S    -0.770588  3.721659  4.562745
