16  
    
  C    -2.995364 -1.803984  2.138390
  C    -3.339051  1.533342  2.040487
  C    -4.273306 -2.075574  1.502645
  C    -4.643340  1.319499  1.515632
  N    -2.005244 -1.957515  1.273085
  N    -2.365773  1.774638  1.172153
  N    -4.224669 -2.018105  0.156189
  N    -4.640831  1.188870  0.200280
  N    -4.661985 -1.970117  4.081146
  N    -5.010251  1.604132  4.021205
  S    -5.555480 -2.109637  2.715650
  S    -5.860286  1.117613  2.664378
  S    -2.592670 -1.986173 -0.235833
  S    -3.126771  1.485332 -0.272623
  S    -3.025423 -1.618697  3.881216
  S    -3.360262  1.758739  3.734541
