16  
    
  C    -3.689049 -2.468931  1.687630
  C    -3.449875  1.826619  1.675630
  C    -4.962401 -2.680673  1.049984
  C    -4.575916  1.091589  1.094796
  N    -2.614957 -2.161843  0.923146
  N    -2.390164  1.902696  0.892976
  N    -4.815017 -2.812879 -0.257402
  N    -4.421724  0.823734 -0.218241
  N    -5.474344 -2.835913  3.620941
  N    -5.135940  1.498431  3.510040
  S    -6.318220 -2.894163  2.179515
  S    -5.818712  0.801343  2.190359
  S    -3.220071 -2.494086 -0.635141
  S    -2.880031  1.284194 -0.556179
  S    -3.842178 -2.626284  3.451889
  S    -3.623612  2.089658  3.354725
