16  
    
  C     2.534915  1.078379  3.323907
  C     2.997873  5.404874  3.944204
  C     1.331027  0.615437  2.626129
  C     1.741259  5.022051  3.362677
  N     3.619923  1.191901  2.537789
  N     3.979558  5.501501  3.015278
  N     1.474543  0.424888  1.327549
  N     1.878723  4.482703  2.146668
  N     0.432845  1.145769  4.973107
  N     1.142182  5.648408  5.714977
  S    -0.164565  0.428690  3.583701
  S     0.403821  4.843252  4.466666
  S     3.046509  0.741491  0.945774
  S     3.420918  4.777428  1.606084
  S     2.149108  1.358446  5.027672
  S     2.751723  5.845308  5.648399
