16  
    
  C     0.717303  0.305586  3.070865
  C     0.614925  3.920208  2.952976
  C    -0.553356  0.225952  2.433063
  C    -0.556856  3.386042  2.362926
  N     1.782711  0.402408  2.258454
  N     1.654457  3.990988  2.153928
  N    -0.519823 -0.013151  1.129264
  N    -0.385677  2.820935  1.193904
  N    -1.098164  0.245911  5.009438
  N    -1.132744  3.978912  4.818446
  S    -1.939250  0.292606  3.574010
  S    -1.824495  3.232505  3.476944
  S     1.113508  0.135428  0.737300
  S     1.145936  3.369659  0.674149
  S     0.535316  0.486428  4.807734
  S     0.428202  4.391441  4.671420
