16  
    
  C     2.788427  1.401255  3.666709
  C     2.944884  5.228718  3.651493
  C     1.558136  1.046957  3.043960
  C     1.694594  5.135375  2.912606
  N     3.809083  1.516640  2.783615
  N     4.011299  5.326057  2.865735
  N     1.631177  0.927529  1.730928
  N     1.844700  4.773430  1.641647
  N     0.982775  0.802819  5.530522
  N     1.121187  4.764155  5.349744
  S     0.234213  0.722863  4.075018
  S     0.363407  4.903043  3.907235
  S     3.216748  1.208690  1.313778
  S     3.427085  5.089406  1.332196
  S     2.511138  1.417028  5.436570
  S     2.729945  5.287732  5.362488
