16  
    
  C    -1.993522 -1.015508  2.331252
  C    -2.277319  2.533997  1.944399
  C    -3.238700 -1.390749  1.632395
  C    -3.496029  2.071874  1.375541
  N    -1.049312 -0.741341  1.456357
  N    -1.270624  2.561531  1.054308
  N    -3.115263 -1.726510  0.377881
  N    -3.489100  1.747588  0.080325
  N    -3.885942 -1.109004  4.077216
  N    -3.913854  2.384052  3.950826
  S    -4.652416 -1.440073  2.592682
  S    -4.769150  1.998581  2.549161
  S    -1.573354 -1.292668 -0.012092
  S    -1.938214  2.067671 -0.421961
  S    -2.267060 -0.791107  3.983594
  S    -2.286354  2.713019  3.684087
