16  
    
  C    -2.664331 -1.317987  2.163986
  C    -2.579502  2.286393  2.284555
  C    -3.882436 -1.825775  1.518746
  C    -3.733639  1.905363  1.585702
  N    -1.624768 -1.201577  1.356962
  N    -1.633131  2.761404  1.474489
  N    -3.763850 -1.937008  0.202500
  N    -3.625772  1.808756  0.258031
  N    -4.394612 -1.526052  4.063239
  N    -4.264587  1.940804  4.085638
  S    -5.237319 -2.045530  2.708440
  S    -5.047157  1.603260  2.683589
  S    -2.222682 -1.521372 -0.176426
  S    -2.089520  2.418990 -0.043050
  S    -2.794097 -1.284983  3.865182
  S    -2.706257  2.422333  4.005190
