16  
    
  C    -1.476474 -0.962862  2.233453
  C    -1.733207  2.395329  2.038560
  C    -2.753673 -1.269212  1.578883
  C    -3.041769  2.125198  1.424379
  N    -0.486088 -1.105587  1.404536
  N    -0.774502  2.590871  1.137359
  N    -2.723481 -1.585851  0.321887
  N    -3.003991  1.932774  0.093332
  N    -3.182922 -1.047954  4.113092
  N    -3.421770  2.085266  3.980402
  S    -4.054865 -1.203226  2.745780
  S    -4.330567  1.873177  2.611477
  S    -1.122849 -1.487282 -0.101967
  S    -1.419276  2.137477 -0.363889
  S    -1.528686 -0.919500  3.940866
  S    -1.823191  2.604001  3.723008
