16  
    
  C     0.668364  0.176741  3.115555
  C     0.709272  3.908923  2.959351
  C    -0.648289  0.146747  2.421675
  C    -0.532836  3.497663  2.286225
  N     1.687718  0.213940  2.258344
  N     1.705679  4.003345  2.118278
  N    -0.611665 -0.008942  1.102166
  N    -0.422806  3.278690  0.993714
  N    -1.109161  0.201720  4.994853
  N    -1.046462  3.720120  4.801593
  S    -1.966078  0.171169  3.556595
  S    -1.781403  3.178332  3.443513
  S     1.036635  0.070787  0.734489
  S     1.195284  3.473705  0.627472
  S     0.541186  0.521965  4.865202
  S     0.501276  4.284381  4.623580
