16  
    
  C    -1.342961 -0.299912  2.063663
  C    -1.141550  3.045432  2.207294
  C    -2.476023 -0.984210  1.542902
  C    -2.513632  2.851151  1.699594
  N    -0.336176 -0.209964  1.180373
  N    -0.212419  3.228072  1.271931
  N    -2.464690 -1.205685  0.248606
  N    -2.485804  2.647265  0.386674
  N    -2.952864 -0.732708  4.116199
  N    -2.771762  2.999651  4.210255
  S    -3.743954 -1.267730  2.745566
  S    -3.712621  2.683767  2.898473
  S    -0.915797 -0.853929 -0.237594
  S    -0.977505  3.011333 -0.176828
  S    -1.356401 -0.161363  3.857752
  S    -1.167830  3.327492  3.962593
