16  
    
  C    -4.033540 -1.817858  1.629276
  C    -3.854215  1.489294  1.724266
  C    -5.254360 -2.248007  1.052443
  C    -5.190088  1.354745  1.086214
  N    -2.966732 -1.868150  0.867768
  N    -2.901419  1.567689  0.802558
  N    -5.122530 -2.509486 -0.248240
  N    -5.107832  1.074793 -0.225746
  N    -5.782481 -1.914025  3.589437
  N    -5.688679  1.549229  3.650987
  S    -6.543754 -2.265431  2.134112
  S    -6.521804  1.371210  2.202843
  S    -3.499122 -2.312397 -0.628551
  S    -3.485038  1.271916 -0.666363
  S    -4.163331 -1.675025  3.436246
  S    -4.051094  1.684056  3.441566
