16  
    
  C    -5.362335 -2.143502  1.582057
  C    -5.344709  1.149484  1.412910
  C    -6.630504 -2.529228  0.989678
  C    -6.573667  0.653397  0.807148
  N    -4.369163 -1.882079  0.725087
  N    -4.319883  1.178989  0.542519
  N    -6.462737 -2.852826 -0.298291
  N    -6.407500  0.492271 -0.497438
  N    -7.060809 -2.569866  3.499877
  N    -7.068462  0.954142  3.250186
  S    -7.944250 -2.867555  2.088131
  S    -7.897063  0.564221  1.914619
  S    -4.892421 -2.549579 -0.737500
  S    -4.872704  0.850757 -0.942732
  S    -5.494097 -2.062763  3.321949
  S    -5.471760  1.379840  3.139312
