16  
    
  C    -2.553277 -1.115457  2.177390
  C    -2.692497  2.537642  2.347191
  C    -3.656175 -1.755718  1.521219
  C    -3.809925  1.928153  1.730012
  N    -1.450529 -0.958786  1.392193
  N    -1.753560  3.033852  1.553191
  N    -3.546432 -1.811880  0.172580
  N    -3.668322  1.785134  0.420477
  N    -4.229950 -1.818705  4.024396
  N    -4.365764  2.027546  4.178360
  S    -5.039564 -2.047874  2.626271
  S    -4.988329  1.382052  2.814243
  S    -1.948881 -1.342954 -0.165324
  S    -2.266204  2.536003 -0.000883
  S    -2.784904 -0.987070  3.893291
  S    -2.844543  2.664911  4.101192
