16  
    
  C    -4.735606 -2.679039  1.509758
  C    -4.653068  1.124960  1.480246
  C    -5.987782 -3.033743  0.902871
  C    -5.890755  0.942215  0.812994
  N    -3.753557 -2.559396  0.646361
  N    -3.590709  1.175360  0.682077
  N    -5.985913 -3.000945 -0.442520
  N    -5.738431  0.807433 -0.516661
  N    -6.406504 -2.727119  3.435991
  N    -6.423040  0.736650  3.356852
  S    -7.272904 -2.963855  2.012911
  S    -7.224614  0.656016  1.844567
  S    -4.428346 -2.753256 -0.865745
  S    -4.168950  0.908494 -0.850517
  S    -4.762725 -2.492668  3.224808
  S    -4.776046  0.911372  3.233407
