16  
    
  C     1.102407  0.227023  3.038445
  C     0.407374  3.805351  3.006461
  C    -0.061420 -0.060016  2.342781
  C    -0.497028  3.026353  2.155824
  N     2.201438  0.431185  2.312980
  N     1.553118  4.161037  2.436919
  N     0.108366 -0.197457  1.046930
  N    -0.176458  3.008280  0.877066
  N    -0.748580 -0.064711  4.733189
  N    -1.459931  3.097377  4.543826
  S    -1.458589 -0.292960  3.312159
  S    -1.841400  2.528386  3.086376
  S     1.670535  0.086654  0.752067
  S     1.312499  3.802415  0.807114
  S     0.849444  0.349030  4.714679
  S     0.100445  3.818949  4.740301
