16  
    
  C    -4.007325 -2.185329  1.758046
  C    -4.028055  1.388157  1.662624
  C    -5.302456 -2.425826  1.198799
  C    -5.327732  1.362160  1.031869
  N    -3.066149 -2.210955  0.861518
  N    -2.982567  1.379055  0.862815
  N    -5.389213 -2.387112 -0.138920
  N    -5.212351  1.100041 -0.267924
  N    -5.721516 -1.791849  3.663522
  N    -5.825626  1.599121  3.540127
  S    -6.602120 -2.279009  2.343455
  S    -6.713071  1.319657  2.103927
  S    -3.786831 -2.244761 -0.612701
  S    -3.537238  1.125140 -0.657817
  S    -4.090706 -1.806376  3.405298
  S    -4.186330  1.678088  3.377544
