16  
    
  C     1.308591  0.842486  3.232817
  C     1.141276  4.368949  3.003528
  C     0.064939  0.369547  2.704392
  C    -0.041084  3.946825  2.248719
  N     2.294389  0.830195  2.350510
  N     2.152509  4.752018  2.240301
  N     0.098906  0.061943  1.415293
  N     0.180518  3.860360  0.927182
  N    -0.256503  0.796937  5.163229
  N    -0.765803  3.993774  4.775776
  S    -1.136331  0.333526  3.891147
  S    -1.386897  3.629221  3.293608
  S     1.672306  0.261780  0.954069
  S     1.712610  4.352003  0.715857
  S     1.307673  1.201729  4.919901
  S     0.890860  4.377579  4.711884
