16  
    
  C    -4.745597 -2.692721  1.525758
  C    -4.656526  0.760477  1.423854
  C    -6.008506 -3.055165  0.939490
  C    -5.902959  0.651134  0.739233
  N    -3.734418 -2.721962  0.657451
  N    -3.581623  1.018811  0.632407
  N    -6.024646 -3.121577 -0.409378
  N    -5.754366  0.725425 -0.588153
  N    -6.395118 -2.570040  3.495824
  N    -6.520707  0.836351  3.201651
  S    -7.267426 -2.993801  2.147153
  S    -7.357792  0.663305  1.777375
  S    -4.399911 -2.936033 -0.868948
  S    -4.219417  0.985804 -0.881458
  S    -4.719064 -2.477002  3.276203
  S    -4.854925  1.083411  3.091224
