16  
    
  C    -2.870778 -1.468696  2.040010
  C    -3.181719  1.980709  1.895292
  C    -4.103594 -1.857311  1.379540
  C    -4.291934  1.467653  1.131926
  N    -1.873203 -1.248662  1.192083
  N    -2.027635  2.054015  1.199509
  N    -3.996505 -2.113654  0.074767
  N    -4.092851  1.347291 -0.201912
  N    -4.580785 -1.684802  3.944110
  N    -5.173257  1.764290  3.559740
  S    -5.399361 -1.950906  2.523213
  S    -5.727635  1.147228  2.115597
  S    -2.474591 -1.624514 -0.293608
  S    -2.488541  1.567083 -0.364269
  S    -3.012011 -1.190643  3.739981
  S    -3.531792  2.030909  3.559687
