16  
    
  C     1.009120  0.039953  2.936131
  C     1.020363  4.063754  2.699040
  C    -0.284440 -0.126502  2.399990
  C    -0.207034  3.397444  2.281063
  N     2.001285  0.204042  2.075335
  N     1.907320  4.071047  1.751927
  N    -0.306227 -0.213540  1.039354
  N    -0.195652  2.944799  1.042755
  N    -0.619399 -0.127678  4.941273
  N    -0.712625  4.311793  4.632943
  S    -1.504408 -0.382209  3.639104
  S    -1.456401  3.407130  3.468008
  S     1.263109  0.011979  0.605082
  S     1.299529  3.236915  0.492339
  S     0.967198  0.145433  4.682637
  S     0.904550  4.642252  4.341072
