16  
    
  C    -3.951977 -1.852052  1.733818
  C    -3.705247  1.772479  1.829027
  C    -5.120310 -2.459204  1.095131
  C    -4.991466  1.441000  1.169709
  N    -2.876144 -1.685992  0.944739
  N    -2.693478  2.074966  1.017082
  N    -5.004665 -2.522253 -0.202605
  N    -4.878806  1.353897 -0.145670
  N    -5.839645 -1.901429  3.428645
  N    -5.424049  1.571255  3.707528
  S    -6.521906 -2.695386  2.149248
  S    -6.179781  1.121401  2.317531
  S    -3.463091 -2.094348 -0.590168
  S    -3.354772  1.784442 -0.543422
  S    -4.176644 -1.574025  3.434194
  S    -3.788062  1.830051  3.595651
