16  
    
  C     3.641501  1.842167  3.647207
  C     3.204104  5.202750  3.495924
  C     2.438293  1.388387  3.031136
  C     1.972516  4.817077  2.826796
  N     4.606992  1.994090  2.724065
  N     4.206556  5.544600  2.685561
  N     2.486213  1.325239  1.693489
  N     2.157299  4.538830  1.538609
  N     2.017022  1.291245  5.535849
  N     1.491743  5.090066  5.325284
  S     1.075671  1.211195  4.150070
  S     0.735570  4.434912  3.986533
  S     3.999597  1.731407  1.233306
  S     3.661842  5.176921  1.195932
  S     3.463850  2.131224  5.323333
  S     3.145480  5.371519  5.115787
