16  
    
  C    -5.177958 -2.463396  1.759098
  C    -5.340968  1.110558  1.486161
  C    -6.457634 -2.888733  1.207286
  C    -6.640652  0.951733  0.858380
  N    -4.155040 -2.388184  0.936187
  N    -4.282858  1.167849  0.685863
  N    -6.398224 -2.932107 -0.120666
  N    -6.598556  0.623539 -0.421831
  N    -6.985332 -2.271491  3.652629
  N    -7.140972  1.101191  3.403404
  S    -7.867029 -2.737440  2.315043
  S    -7.987668  0.894980  1.986254
  S    -4.787922 -2.682930 -0.589826
  S    -4.979537  0.825847 -0.845509
  S    -5.349938 -1.940343  3.435065
  S    -5.452215  1.355263  3.253844
