16  
    
  C     1.597115  0.726280  2.834198
  C     0.925648  3.860547  2.503603
  C     0.385439  0.153251  2.233497
  C    -0.285977  3.454741  1.909346
  N     2.621812  0.800692  1.999192
  N     1.944647  4.016340  1.674179
  N     0.482336 -0.113690  0.921345
  N    -0.239276  3.264213  0.569705
  N    -0.161159  0.670182  4.700578
  N    -0.861712  3.551334  4.445242
  S    -0.974916  0.143061  3.349473
  S    -1.636007  3.189343  3.018658
  S     2.022905  0.309756  0.531178
  S     1.329241  3.698464  0.153114
  S     1.432945  1.124254  4.494009
  S     0.728671  4.148587  4.221512
