16  
    
  C    -3.984581 -2.118591  1.690125
  C    -4.001260  1.568360  1.697203
  C    -5.294532 -2.309925  1.132441
  C    -5.300851  1.253322  1.031828
  N    -2.954562 -2.028011  0.871074
  N    -2.960671  1.472609  0.919598
  N    -5.225860 -2.457245 -0.188820
  N    -5.166615  1.120525 -0.286388
  N    -5.747797 -1.800563  3.580876
  N    -5.739707  1.594672  3.481973
  S    -6.660266 -2.284406  2.259027
  S    -6.586814  1.346485  2.092012
  S    -3.659670 -2.259133 -0.654158
  S    -3.591542  1.163739 -0.614848
  S    -4.078590 -1.734540  3.438507
  S    -4.059917  1.664476  3.416083
