16  
    
  C     1.567998  0.996773  3.221980
  C     1.880364  4.672549  3.286709
  C     0.363926  0.530245  2.545570
  C     0.697175  4.009551  2.721937
  N     2.613795  1.148204  2.439988
  N     2.951707  4.651941  2.436067
  N     0.529286  0.405358  1.219509
  N     0.833315  3.671827  1.433962
  N    -0.278436  0.623934  4.983419
  N     0.120777  4.543196  5.232036
  S    -0.918264  0.117133  3.598920
  S    -0.668256  4.128422  3.794118
  S     2.091562  0.756474  0.920946
  S     2.306318  4.124442  1.008966
  S     1.251798  1.228402  4.925322
  S     1.766464  4.866272  5.048762
