16  
    
  C    -5.838861 -2.728606  1.182202
  C    -5.663526  0.863691  1.565898
  C    -7.043750 -3.190342  0.581661
  C    -6.881692  0.516917  0.860879
  N    -4.823451 -2.579833  0.334728
  N    -4.544183  0.999255  0.816121
  N    -6.985847 -3.221033 -0.735200
  N    -6.733362  0.243838 -0.453142
  N    -7.358756 -3.319142  3.179363
  N    -7.557397  0.520963  3.382124
  S    -8.247917 -3.562934  1.796153
  S    -8.232981  0.222277  1.900852
  S    -5.402826 -2.866444 -1.149301
  S    -5.109700  0.584531 -0.736248
  S    -5.922250 -2.504837  2.901577
  S    -5.951004  1.064951  3.230592
