16  
    
  C     2.680161  1.323299  3.654760
  C     2.943701  5.062457  3.594283
  C     1.492529  1.010686  2.907748
  C     1.672608  5.011298  2.933853
  N     3.726978  1.500896  2.859116
  N     3.997823  5.162173  2.782524
  N     1.682098  0.953396  1.587138
  N     1.779202  4.875246  1.605032
  N     0.928895  0.743322  5.403796
  N     1.124035  5.146674  5.493348
  S     0.153603  0.577178  3.911751
  S     0.303704  5.071333  4.093645
  S     3.316193  1.300054  1.354806
  S     3.420370  4.906606  1.252120
  S     2.556178  1.219262  5.391193
  S     2.766077  5.235260  5.380390
