16  
    
  C    -1.596092 -1.160867  2.111322
  C    -1.750164  2.332450  1.960585
  C    -2.897279 -1.387096  1.473418
  C    -2.946672  2.085839  1.262836
  N    -0.615954 -1.113221  1.258626
  N    -0.727020  2.478636  1.129304
  N    -2.894665 -1.516671  0.172465
  N    -2.870691  1.814209 -0.057146
  N    -3.315167 -0.997866  4.021625
  N    -3.545037  2.206973  3.800329
  S    -4.232701 -1.179784  2.662359
  S    -4.321853  1.902615  2.318292
  S    -1.300111 -1.402999 -0.267803
  S    -1.269959  2.200321 -0.402444
  S    -1.678940 -0.905488  3.812289
  S    -1.871320  2.368184  3.689531
