16  
    
  C    -2.679940 -1.898791  1.993221
  C    -2.918371  2.260293  1.856450
  C    -3.925502 -1.984767  1.291675
  C    -4.044189  1.654847  1.143325
  N    -1.568320 -1.868475  1.231160
  N    -1.940615  2.648367  1.054938
  N    -3.785093 -2.232732 -0.006146
  N    -3.879448  1.625581 -0.181095
  N    -4.581390 -1.860166  3.723815
  N    -4.790139  1.761102  3.591095
  S    -5.317638 -2.180642  2.260770
  S    -5.470857  1.420024  2.126788
  S    -2.191009 -2.127794 -0.337406
  S    -2.364011  2.291551 -0.531834
  S    -2.921705 -1.744497  3.736599
  S    -3.232216  2.324600  3.614536
