16  
    
  C     3.551668  2.173649  3.581314
  C     3.455012  5.263102  3.518168
  C     2.440962  1.598107  2.900870
  C     2.185932  5.017425  2.934731
  N     4.642310  2.308159  2.803518
  N     4.428539  5.612886  2.647937
  N     2.715131  1.331583  1.620002
  N     2.232386  4.836379  1.621891
  N     1.814609  1.868664  5.418009
  N     1.667079  4.887991  5.507599
  S     1.152540  1.359518  3.965112
  S     0.945265  4.588376  4.029099
  S     4.307590  1.723326  1.365095
  S     3.803614  5.164909  1.147323
  S     3.447742  2.177640  5.332097
  S     3.242178  5.357834  5.328296
