16  
    
  C    -0.163282  0.132952  2.537297
  C     0.015660  3.643387  2.463328
  C    -1.371737 -0.499014  2.096406
  C    -1.229048  3.038513  1.884453
  N     0.798977  0.236869  1.617078
  N     0.941699  3.949599  1.570743
  N    -1.387751 -0.772303  0.790410
  N    -1.080743  2.694823  0.607511
  N    -1.649060 -0.348056  4.569475
  N    -1.714115  3.506609  4.363752
  S    -2.622848 -0.749602  3.257771
  S    -2.547126  2.917433  3.028363
  S     0.114446 -0.385214  0.202439
  S     0.450521  3.169420  0.177660
  S    -0.044847 -0.013591  4.224747
  S    -0.199857  4.030092  4.121595
