16  
    
  C     2.962135  1.489399  3.400668
  C     2.981855  5.083160  3.213160
  C     1.725130  1.136583  2.783647
  C     1.804018  4.481154  2.613526
  N     4.009878  1.722590  2.616251
  N     4.017507  5.233784  2.357448
  N     1.829079  1.119334  1.479665
  N     1.860867  4.406065  1.293376
  N     1.240119  1.001460  5.260551
  N     1.157114  4.996793  5.080220
  S     0.400865  0.815079  3.850516
  S     0.482684  4.374939  3.730215
  S     3.401607  1.403567  1.068079
  S     3.386142  4.777790  0.835999
  S     2.760078  1.586703  5.120980
  S     2.718853  5.405613  4.947159
