16  
    
  C    -4.204773 -2.287003  1.649393
  C    -4.261531  1.734441  1.894184
  C    -5.504939 -2.598245  1.016500
  C    -5.401670  1.136671  1.284907
  N    -3.195868 -2.257702  0.787355
  N    -3.180618  1.694917  1.144671
  N    -5.379315 -2.942125 -0.263827
  N    -5.287810  0.685760  0.062926
  N    -5.974610 -2.041930  3.574757
  N    -6.056847  1.462950  3.765424
  S    -6.777796 -2.702219  2.205535
  S    -6.815664  0.990058  2.300870
  S    -3.741714 -2.781378 -0.698047
  S    -3.616282  0.967753 -0.261972
  S    -4.317447 -1.819036  3.376805
  S    -4.520837  2.164435  3.515234
