16  
    
  C     1.349440  0.337002  3.125167
  C     0.967906  3.945564  2.616466
  C     0.136556  0.148970  2.323766
  C    -0.114138  3.449558  1.812832
  N     2.484422  0.286111  2.366391
  N     1.970575  4.405664  1.906420
  N     0.362488 -0.080254  1.057087
  N     0.143995  3.186831  0.550232
  N    -0.658162  0.559708  4.661147
  N    -0.988491  3.747375  4.205678
  S    -1.363519  0.315953  3.231748
  S    -1.546675  3.249327  2.791803
  S     2.020802 -0.045820  0.762421
  S     1.709940  3.798584  0.333402
  S     0.967934  0.826418  4.778683
  S     0.637971  4.326760  4.326744
