16  
    
  C     1.021126  0.114328  2.992103
  C     0.988797  3.968896  2.719406
  C    -0.300055 -0.105809  2.389059
  C    -0.232435  3.422190  2.210145
  N     2.034766  0.233852  2.113162
  N     1.946343  4.198582  1.761340
  N    -0.250824 -0.133406  1.083229
  N    -0.171478  2.844563  0.998225
  N    -0.646894 -0.151764  4.964797
  N    -0.678029  4.370547  4.598110
  S    -1.566010 -0.309080  3.595586
  S    -1.438565  3.409721  3.401925
  S     1.328294  0.021274  0.564435
  S     1.369570  3.250396  0.439346
  S     0.919411  0.156480  4.701304
  S     0.889488  4.739454  4.329537
