16  
    
  C    -5.711922 -2.720695  1.526243
  C    -5.548881  0.864304  1.445951
  C    -6.863267 -3.239849  0.791161
  C    -6.756114  0.463471  0.799430
  N    -4.606478 -2.469712  0.821046
  N    -4.553863  1.127384  0.605171
  N    -6.653100 -3.315877 -0.519466
  N    -6.619503  0.238259 -0.536256
  N    -7.578836 -2.851251  3.309387
  N    -7.347063  0.874626  3.298537
  S    -8.341158 -3.225904  1.820763
  S    -8.060906  0.157115  1.895688
  S    -5.059731 -2.784715 -0.793670
  S    -5.025032  0.635813 -0.942906
  S    -5.911452 -2.632077  3.252830
  S    -5.648841  1.030911  3.218017
