16  
    
  C     0.113704 -0.025490  2.735985
  C     0.105622  3.558906  2.682193
  C    -1.043529 -0.596481  2.112146
  C    -1.112912  3.063573  2.004487
  N     1.091277  0.191997  1.916410
  N     1.158799  3.804599  1.880714
  N    -0.999148 -0.692439  0.818034
  N    -0.842565  2.698061  0.729224
  N    -1.576099 -0.293218  4.565335
  N    -1.780708  3.259727  4.472545
  S    -2.273214 -0.921872  3.205732
  S    -2.340080  2.511820  3.113172
  S     0.535858 -0.169205  0.382842
  S     0.652408  3.309427  0.371195
  S    -0.064034  0.412461  4.390509
  S    -0.230968  3.970327  4.345445
