16  
    
  C    -1.965308 -1.077092  2.310186
  C    -2.284449  2.563325  1.925530
  C    -3.218278 -1.415777  1.626487
  C    -3.553749  2.035299  1.403092
  N    -1.024830 -0.736741  1.456760
  N    -1.264646  2.540839  1.061231
  N    -3.101760 -1.734639  0.361012
  N    -3.505213  1.771544  0.103801
  N    -3.888054 -1.091183  4.064846
  N    -3.933263  2.386398  3.942929
  S    -4.628342 -1.484945  2.575216
  S    -4.789607  2.006638  2.553895
  S    -1.566560 -1.286123 -0.039015
  S    -1.966134  2.081448 -0.419904
  S    -2.253345 -0.793165  3.995736
  S    -2.309200  2.739705  3.664850
