16  
    
  C    -3.082897 -1.694499  1.863803
  C    -3.514484  1.600671  2.124086
  C    -4.252407 -2.331649  1.357784
  C    -4.662320  1.149203  1.403584
  N    -2.155704 -1.531720  0.937371
  N    -2.426393  1.564447  1.378539
  N    -4.187794 -2.642157  0.055634
  N    -4.472787  0.816115  0.118158
  N    -4.667574 -2.060021  3.870554
  N    -5.339311  1.400966  3.849713
  S    -5.551100 -2.506871  2.520175
  S    -6.146826  1.106884  2.382507
  S    -2.689053 -2.161044 -0.454156
  S    -2.870400  1.131412 -0.144803
  S    -3.123090 -1.486850  3.572813
  S    -3.719522  1.896119  3.843466
