16  
    
  C     2.243890  0.941880  3.418357
  C     2.072214  4.630756  2.993764
  C     0.978647  0.601027  2.833125
  C     0.843819  4.266096  2.332864
  N     3.238402  1.092869  2.581511
  N     3.076677  4.966925  2.193277
  N     1.037072  0.340601  1.532647
  N     0.918706  4.081705  1.028928
  N     0.552494  0.860534  5.349562
  N     0.332335  4.375763  4.874697
  S    -0.314591  0.669794  3.973584
  S    -0.479123  3.944864  3.452905
  S     2.665792  0.720046  1.086299
  S     2.507168  4.518705  0.672602
  S     2.235652  1.006999  5.095218
  S     1.864364  4.921644  4.615491
