16  
    
  C    -5.564940 -2.811631  1.579150
  C    -5.470379  0.979378  1.384609
  C    -6.775564 -3.018917  0.858938
  C    -6.660855  0.408276  0.752909
  N    -4.503426 -2.595710  0.832630
  N    -4.422102  1.206295  0.594137
  N    -6.608173 -3.251298 -0.446192
  N    -6.613399  0.210035 -0.538705
  N    -7.352345 -3.248132  3.301197
  N    -7.249112  0.540273  3.245485
  S    -8.126051 -3.260637  1.853861
  S    -8.010235  0.180422  1.839817
  S    -4.999201 -2.940003 -0.696519
  S    -5.079268  0.781124 -0.936493
  S    -5.852900 -2.549491  3.266517
  S    -5.710208  1.133805  3.066260
