16  
    
  C     2.559106  1.133647  3.361331
  C     2.912046  5.216602  3.726384
  C     1.409596  0.642672  2.595220
  C     1.595425  5.257985  3.133658
  N     3.677429  1.410752  2.683708
  N     3.917770  5.052978  2.890863
  N     1.616755  0.650960  1.283726
  N     1.597131  4.760123  1.903228
  N     0.675144  0.787225  5.145729
  N     1.367404  5.455371  5.663698
  S     0.015680  0.168650  3.718281
  S     0.350315  5.412329  4.369222
  S     3.206649  1.072066  1.019926
  S     3.189180  4.626238  1.429205
  S     2.295320  1.205413  5.024096
  S     3.023263  5.514334  5.393874
