16  
    
  C     3.492797  1.598103  3.566878
  C     2.971051  5.306108  3.345489
  C     2.178361  1.082551  3.113838
  C     1.878293  4.601994  2.685010
  N     4.421146  1.834649  2.635387
  N     4.042285  5.487827  2.550264
  N     2.122574  0.889554  1.823499
  N     2.108278  4.376902  1.414383
  N     1.890004  1.355790  5.608462
  N     1.317130  4.687742  5.266459
  S     0.944112  0.958880  4.328432
  S     0.519964  4.294162  3.845561
  S     3.583059  1.363930  1.184431
  S     3.677687  4.899622  1.071300
  S     3.490290  1.760070  5.354633
  S     2.738826  5.535621  5.098844
