16  
    
  C     2.335712  0.788604  3.521075
  C     1.938502  5.096165  3.061825
  C     1.002371  0.676433  2.939777
  C     0.809800  4.436875  2.381071
  N     3.367656  0.685830  2.702737
  N     2.977032  5.471490  2.346077
  N     1.010895  0.657754  1.640103
  N     1.075535  4.209466  1.105316
  N     0.634255  1.113600  5.373806
  N     0.017478  4.779056  4.837602
  S    -0.262260  0.484861  4.161789
  S    -0.588193  4.096122  3.343858
  S     2.692719  0.636770  1.161648
  S     2.623144  4.765692  0.853922
  S     2.287381  1.106672  5.214908
  S     1.647524  5.240068  4.812855
