16  
    
  C     2.455949  0.981237  3.314564
  C     2.415313  4.694933  3.434169
  C     1.247827  0.750165  2.560095
  C     1.259495  4.258919  2.678279
  N     3.529355  1.318281  2.595444
  N     3.473063  5.082662  2.710701
  N     1.378818  0.944983  1.262233
  N     1.488443  4.067970  1.366319
  N     0.685020  0.622700  5.043423
  N     0.533006  4.284811  5.226065
  S    -0.102568  0.335222  3.611363
  S    -0.138341  3.945000  3.716312
  S     3.016325  1.337389  1.007133
  S     2.995251  4.798302  1.143428
  S     2.221733  1.027366  4.985146
  S     2.212527  4.844538  5.100523
