16  
    
  C     2.656284  1.308978  3.640719
  C     2.924917  5.006047  3.614839
  C     1.505687  0.974646  2.862684
  C     1.645634  5.051525  2.915529
  N     3.713538  1.496527  2.866276
  N     3.978896  5.108290  2.805957
  N     1.707517  0.931918  1.538631
  N     1.776988  4.830658  1.589647
  N     0.905238  0.761422  5.403856
  N     1.136557  5.210650  5.517351
  S     0.151915  0.563394  3.911058
  S     0.315553  5.089357  4.117737
  S     3.321165  1.324242  1.352452
  S     3.403184  4.910432  1.248913
  S     2.543980  1.184818  5.372858
  S     2.777632  5.237525  5.363504
