16  
    
  C    -4.908821 -2.684975  1.976919
  C    -5.357558  1.136925  1.686870
  C    -6.207852 -2.942583  1.303484
  C    -6.676965  0.801087  1.045738
  N    -3.874781 -2.604703  1.125200
  N    -4.264851  1.047234  0.930381
  N    -6.062447 -3.306153  0.046396
  N    -6.592563  0.657107 -0.238869
  N    -6.771847 -2.750026  3.787700
  N    -7.163266  0.990344  3.498492
  S    -7.618047 -2.882387  2.349090
  S    -8.018993  0.663166  2.139350
  S    -4.448786 -3.032066 -0.373332
  S    -4.936047  0.779900 -0.613943
  S    -5.192136 -2.165239  3.650401
  S    -5.532590  1.311668  3.426382
