16  
    
  C    -3.196769 -1.921457  1.833628
  C    -3.635375  1.754021  2.031809
  C    -4.383626 -2.530387  1.270812
  C    -4.706046  1.064237  1.362107
  N    -2.126300 -1.933198  1.046856
  N    -2.534110  2.088045  1.338962
  N    -4.282708 -2.695707 -0.069968
  N    -4.406336  0.761092  0.106588
  N    -4.973059 -2.076595  3.771265
  N    -5.598233  1.498118  3.698423
  S    -5.626132 -2.831327  2.403768
  S    -6.155963  0.745977  2.280241
  S    -2.687654 -2.361446 -0.464764
  S    -2.907248  1.390988 -0.191177
  S    -3.437433 -1.441481  3.583516
  S    -3.988732  2.078087  3.732734
