16  
    
  C    -1.363460 -0.924972  2.279063
  C    -1.540584  2.864423  2.006885
  C    -2.529013 -1.401988  1.495958
  C    -2.655151  2.270874  1.346280
  N    -0.279183 -0.781629  1.539618
  N    -0.462846  3.142692  1.230776
  N    -2.353654 -1.349739  0.169926
  N    -2.368864  1.965481  0.072014
  N    -3.206892 -1.420579  4.048048
  N    -3.292960  2.422283  3.794565
  S    -3.909859 -1.639641  2.530959
  S    -3.870816  1.665779  2.446670
  S    -0.699960 -1.016855 -0.057086
  S    -0.909585  2.635632 -0.278971
  S    -1.649217 -0.773180  3.961710
  S    -1.913239  3.316304  3.659404
