16  
    
  C    -3.972119 -2.074025  1.739449
  C    -4.012702  1.591880  1.681617
  C    -5.267061 -2.240823  1.091750
  C    -5.256800  1.239858  1.045197
  N    -2.982852 -1.971829  0.875126
  N    -2.931488  1.496825  0.930280
  N    -5.203203 -2.496695 -0.223226
  N    -5.183641  1.119524 -0.268970
  N    -5.774093 -1.821248  3.579386
  N    -5.715892  1.590109  3.533401
  S    -6.646034 -2.283760  2.229905
  S    -6.549767  1.356345  2.096261
  S    -3.607361 -2.272067 -0.668534
  S    -3.575384  1.186071 -0.626706
  S    -4.083216 -1.717323  3.438012
  S    -4.048315  1.663624  3.426411
