16  
    
  C     1.559642  0.712136  2.872061
  C     0.837048  4.125354  2.478572
  C     0.307228  0.367031  2.264808
  C    -0.301297  3.447786  1.883510
  N     2.539450  0.914928  1.968703
  N     1.817237  4.299874  1.608065
  N     0.369858  0.283341  0.927259
  N    -0.080534  3.155479  0.599351
  N    -0.138216  0.297198  4.785414
  N    -0.867324  3.789414  4.335022
  S    -0.981918 -0.039009  3.335501
  S    -1.594522  3.122621  3.002248
  S     1.903252  0.672983  0.476528
  S     1.423650  3.667578  0.184315
  S     1.417979  0.833871  4.609957
  S     0.692580  4.231254  4.216394
