16  
    
  C     0.822493  0.458380  3.008029
  C     0.535219  3.896092  2.942362
  C    -0.399711 -0.003193  2.375608
  C    -0.712881  3.516361  2.355907
  N     1.888667  0.418917  2.188079
  N     1.511204  3.822868  2.049352
  N    -0.315245 -0.170864  1.073173
  N    -0.732654  3.126735  1.111525
  N    -0.967467  0.258764  4.897640
  N    -1.099724  3.753995  4.971943
  S    -1.794356  0.070765  3.469226
  S    -1.958863  3.306297  3.565816
  S     1.296898  0.095559  0.640074
  S     0.861018  3.401282  0.603763
  S     0.636849  0.695503  4.761904
  S     0.468269  4.102536  4.700078
