16  
    
  C    -4.257431 -1.872913  2.052473
  C    -4.149704  1.399252  1.949985
  C    -5.535482 -2.319314  1.477173
  C    -5.402219  1.193715  1.294670
  N    -3.206773 -1.902927  1.205968
  N    -3.125462  1.432297  1.109264
  N    -5.462720 -2.414079  0.159324
  N    -5.396744  0.965326 -0.025009
  N    -5.985816 -1.980523  3.971483
  N    -5.874876  1.367701  3.800133
  S    -6.807463 -2.471212  2.605523
  S    -6.736805  1.032356  2.462937
  S    -3.868596 -2.254670 -0.315745
  S    -3.738042  1.150839 -0.461860
  S    -4.391983 -1.730835  3.769506
  S    -4.264323  1.736842  3.654493
