16  
    
  C    -4.758764 -2.438040  1.472453
  C    -4.528290  0.968069  1.679540
  C    -5.989479 -2.723497  0.842096
  C    -5.769485  0.620724  0.987922
  N    -3.738480 -2.117078  0.657365
  N    -3.465529  1.173096  0.882977
  N    -5.915554 -2.831850 -0.466126
  N    -5.718370  0.768078 -0.324532
  N    -6.457239 -2.743867  3.386436
  N    -6.308082  0.665276  3.642344
  S    -7.252974 -3.068925  1.936146
  S    -7.076063  0.517625  2.152542
  S    -4.316698 -2.465534 -0.821963
  S    -4.031593  1.271969 -0.678941
  S    -4.798437 -2.434369  3.201725
  S    -4.645124  1.038990  3.452463
