16  
    
  C     2.396118  1.134987  3.413174
  C     2.386549  4.856359  3.314265
  C     1.179079  0.748560  2.714631
  C     1.189792  4.318081  2.664394
  N     3.388674  1.534878  2.612920
  N     3.397655  5.171462  2.504431
  N     1.301725  0.742568  1.397684
  N     1.266638  4.256219  1.339694
  N     0.588224  0.572892  5.120789
  N     0.511099  4.210581  5.227955
  S    -0.221844  0.456450  3.654953
  S    -0.161428  3.874793  3.726264
  S     2.838655  1.335364  1.009714
  S     2.852305  4.698814  0.951182
  S     2.147271  1.008891  5.178745
  S     2.215845  4.718620  5.122735
