16  
    
  C     1.099383  0.307946  3.040869
  C     0.444020  3.756632  2.996368
  C    -0.107601 -0.102673  2.292699
  C    -0.441377  2.990984  2.169182
  N     2.170231  0.465966  2.272132
  N     1.475177  4.207828  2.285223
  N     0.064132 -0.132747  0.954504
  N    -0.166338  3.042914  0.836243
  N    -0.780417 -0.116843  4.789492
  N    -1.462357  3.156441  4.551160
  S    -1.471319 -0.294745  3.274709
  S    -1.867302  2.529703  3.050706
  S     1.673363  0.176226  0.751102
  S     1.306786  3.719060  0.762705
  S     0.831650  0.272397  4.723914
  S     0.053889  3.789319  4.692295
