16  
    
  C    -5.068353 -2.507868  1.950548
  C    -5.414148  1.142517  1.656986
  C    -6.271617 -3.018230  1.297566
  C    -6.663571  0.979698  1.009588
  N    -3.984221 -2.665677  1.195468
  N    -4.384607  1.112102  0.818938
  N    -6.118484 -3.322558  0.019963
  N    -6.547925  0.778697 -0.279996
  N    -6.755201 -2.697825  3.775578
  N    -7.222836  1.024068  3.600189
  S    -7.600999 -2.763663  2.333706
  S    -7.992780  0.720222  2.112432
  S    -4.533215 -3.058466 -0.313682
  S    -4.975185  0.732215 -0.655255
  S    -5.167031 -2.137880  3.622501
  S    -5.582678  1.263037  3.369249
