16  
    
  C    -3.480365 -2.222420  1.865380
  C    -3.759052  1.958217  1.913610
  C    -4.559022 -3.023450  1.306853
  C    -4.739273  1.075731  1.280622
  N    -2.359478 -2.036064  1.125008
  N    -2.767154  2.363521  1.119072
  N    -4.352121 -3.306593  0.017678
  N    -4.428557  0.740344  0.036222
  N    -5.379875 -2.497487  3.665501
  N    -5.425173  1.339283  3.723484
  S    -5.970660 -3.161240  2.259928
  S    -5.907483  0.537838  2.339193
  S    -2.806382 -2.818744 -0.311859
  S    -3.053191  1.579961 -0.324467
  S    -3.761532 -2.035587  3.581146
  S    -4.158380  2.386422  3.509961
