16  
    
  C    -2.728531 -1.592348  2.128570
  C    -2.537938  2.452467  2.217942
  C    -3.996882 -1.879729  1.523716
  C    -3.705627  1.950843  1.569961
  N    -1.746548 -1.243011  1.298717
  N    -1.446976  2.553599  1.435066
  N    -3.902620 -1.989301  0.189584
  N    -3.597326  1.860103  0.242000
  N    -4.444622 -1.465995  4.065301
  N    -4.229852  1.850501  4.099086
  S    -5.250550 -2.085879  2.742882
  S    -5.103086  1.718180  2.659599
  S    -2.274437 -1.578667 -0.218146
  S    -2.024764  2.215478 -0.140827
  S    -2.760366 -1.366352  3.863761
  S    -2.622611  2.377373  3.916878
