16  
    
  C     3.216501  1.630400  3.607369
  C     3.098571  5.178287  3.384530
  C     2.009896  1.137361  3.029835
  C     1.994505  4.512128  2.738106
  N     4.252989  1.633581  2.752150
  N     4.175242  5.343518  2.632651
  N     2.100353  0.832752  1.743277
  N     2.159884  4.348984  1.463384
  N     1.472293  1.459802  5.489993
  N     1.274441  4.892665  5.157629
  S     0.706502  1.020698  4.097371
  S     0.659025  4.201473  3.753330
  S     3.683222  1.090726  1.371006
  S     3.699012  4.959411  1.125466
  S     2.988069  2.060275  5.330159
  S     2.862915  5.360406  5.075996
