16  
    
  C    -3.052259 -1.254145  2.195460
  C    -3.129411  1.689231  2.062349
  C    -4.225179 -1.786028  1.569992
  C    -4.359471  1.422638  1.351199
  N    -2.006951 -1.245020  1.369224
  N    -2.167072  2.007299  1.197058
  N    -4.155357 -1.889782  0.230564
  N    -4.280750  1.331921  0.052449
  N    -4.789232 -1.622309  4.055690
  N    -5.087482  1.587284  3.787733
  S    -5.552622 -1.941366  2.608905
  S    -5.763585  1.254103  2.297777
  S    -2.578685 -1.567298 -0.189082
  S    -2.713906  1.738295 -0.310478
  S    -3.242281 -1.116110  3.917936
  S    -3.442697  1.936600  3.681367
