16  
    
  C     2.149769  1.094532  3.431689
  C     2.031665  4.924280  3.159277
  C     0.902313  0.689035  2.864575
  C     0.845682  4.639685  2.435056
  N     3.178669  1.217641  2.587451
  N     3.069796  5.256959  2.388843
  N     1.031192  0.443681  1.536308
  N     1.107381  4.415042  1.141798
  N     0.588390  1.029977  5.392027
  N     0.234785  4.389639  5.033132
  S    -0.350413  0.545873  4.138955
  S    -0.476577  4.182494  3.497968
  S     2.583889  0.744793  1.142914
  S     2.645798  4.950814  0.828703
  S     2.169728  1.202670  5.155443
  S     1.848062  4.889519  4.816398
