16  
    
  C    -4.780764 -2.363841  1.773116
  C    -5.012145  1.104661  1.768623
  C    -6.026218 -2.786993  1.177336
  C    -6.071926  0.446075  1.096848
  N    -3.829125 -2.044986  0.908696
  N    -3.967543  1.228995  0.980733
  N    -5.924537 -3.011435 -0.113355
  N    -5.875652  0.217775 -0.189285
  N    -6.393382 -2.891430  3.724635
  N    -6.805796  0.932410  3.483608
  S    -7.249945 -3.256132  2.373295
  S    -7.392271  0.128559  2.191834
  S    -4.388271 -2.610386 -0.577988
  S    -4.392119  0.806855 -0.508129
  S    -4.914412 -2.177748  3.471669
  S    -5.241573  1.518726  3.432304
