16  
    
  C     0.973352  0.226539  2.927234
  C     0.556496  3.484787  2.800995
  C    -0.217711 -0.127163  2.221399
  C    -0.666875  3.133838  2.058102
  N     1.946279  0.614570  2.139135
  N     1.558288  3.934835  2.060531
  N    -0.083996 -0.136978  0.889209
  N    -0.521427  3.155167  0.712019
  N    -0.756092 -0.185386  4.696899
  N    -1.305180  3.256277  4.552220
  S    -1.529212 -0.517413  3.246419
  S    -1.986528  2.780607  3.135670
  S     1.422562  0.380356  0.557301
  S     1.109060  3.567616  0.483262
  S     0.813694  0.307881  4.652249
  S     0.290140  3.682436  4.488419
