16  
    
  C     0.282745  0.059952  2.748017
  C     0.118110  3.525768  2.732809
  C    -0.934300 -0.431359  2.113300
  C    -0.957904  2.951032  2.046356
  N     1.285088  0.384802  1.882795
  N     1.128811  3.959805  1.983365
  N    -0.736939 -0.772434  0.826364
  N    -0.794604  2.838074  0.754125
  N    -1.482935 -0.348897  4.669166
  N    -1.633942  3.060622  4.573098
  S    -2.239812 -0.867381  3.292751
  S    -2.330837  2.628633  3.098798
  S     0.798265 -0.253562  0.372217
  S     0.789230  3.437410  0.451319
  S     0.072558  0.218119  4.474705
  S    -0.124958  3.787642  4.448847
