16  
    
  C     2.716201  1.339677  3.668027
  C     2.964686  5.163855  3.604903
  C     1.486227  1.041571  2.951209
  C     1.698217  4.946020  2.957719
  N     3.780605  1.520469  2.900868
  N     4.019818  5.205729  2.770264
  N     1.654578  0.976045  1.642662
  N     1.777145  4.922978  1.626677
  N     0.954590  0.726255  5.406251
  N     1.111837  5.069365  5.473897
  S     0.159496  0.595967  3.921338
  S     0.292030  5.049055  4.046589
  S     3.290206  1.267157  1.335786
  S     3.429528  4.910880  1.259619
  S     2.557654  1.259430  5.401971
  S     2.763396  5.233609  5.388756
