16  
    
  C    -2.589794 -1.259697  2.195303
  C    -2.593331  2.411119  2.303983
  C    -3.825601 -1.710344  1.543985
  C    -3.721433  1.761207  1.658660
  N    -1.600954 -1.094928  1.358438
  N    -1.610443  2.867165  1.513466
  N    -3.738387 -1.899186  0.262188
  N    -3.605875  1.810958  0.351007
  N    -4.402183 -1.677684  4.032763
  N    -4.375215  2.007559  4.171936
  S    -5.110597 -2.012931  2.569854
  S    -5.048847  1.494112  2.733965
  S    -2.168842 -1.484209 -0.143040
  S    -2.185411  2.552295 -0.062167
  S    -2.783276 -1.159728  3.931969
  S    -2.775950  2.479514  4.061360
