16  
    
  C    -4.360580 -2.457913  1.492886
  C    -4.449499  1.605210  1.966539
  C    -5.504845 -2.941206  0.776206
  C    -5.589808  0.986609  1.345495
  N    -3.260480 -2.145787  0.764572
  N    -3.461687  1.752777  1.084523
  N    -5.327122 -2.996879 -0.526872
  N    -5.571273  0.816057  0.018181
  N    -6.268929 -2.891416  3.306165
  N    -5.935541  1.047157  3.903785
  S    -6.909548 -3.276058  1.799353
  S    -6.799731  0.610077  2.517813
  S    -3.780808 -2.385847 -0.817912
  S    -4.037684  1.287997 -0.355666
  S    -4.716083 -2.347593  3.173285
  S    -4.390075  1.737804  3.677596
