16  
    
  C     2.288331  1.058264  3.485726
  C     2.033898  4.961265  3.203289
  C     1.006256  0.665947  2.937955
  C     0.900235  4.460539  2.426289
  N     3.257337  1.171895  2.571256
  N     3.078117  5.186874  2.436404
  N     1.034853  0.335587  1.666409
  N     1.082602  4.550976  1.118567
  N     0.567827  0.873112  5.490995
  N     0.172318  4.494899  4.825854
  S    -0.325858  0.683134  4.059987
  S    -0.547020  4.193211  3.338503
  S     2.536285  0.627101  1.131475
  S     2.644070  4.938046  0.852051
  S     2.242898  1.138637  5.259325
  S     1.674378  5.193494  4.940978
