16  
    
  C     3.644581  1.815172  3.637857
  C     3.202540  5.186023  3.470615
  C     2.423820  1.357673  3.033199
  C     1.984718  4.791967  2.825883
  N     4.602630  1.973078  2.743039
  N     4.192313  5.550939  2.700512
  N     2.469537  1.320308  1.695336
  N     2.154604  4.534108  1.521711
  N     2.026873  1.278491  5.531688
  N     1.464626  5.104008  5.315993
  S     1.094296  1.203333  4.157796
  S     0.731862  4.429677  3.989916
  S     3.962915  1.731178  1.222215
  S     3.646580  5.169301  1.186195
  S     3.465258  2.118050  5.338325
  S     3.123332  5.374397  5.112641
