16  
    
  C    -3.081073 -1.704606  1.866227
  C    -3.509586  1.605118  2.124462
  C    -4.260104 -2.322921  1.357219
  C    -4.658741  1.144454  1.411863
  N    -2.157000 -1.525433  0.935248
  N    -2.428807  1.554193  1.372789
  N    -4.182571 -2.643889  0.063063
  N    -4.474678  0.825575  0.124963
  N    -4.665539 -2.062119  3.873098
  N    -5.329654  1.401686  3.844795
  S    -5.548573 -2.498361  2.522134
  S    -6.144692  1.111538  2.384462
  S    -2.687882 -2.156925 -0.458409
  S    -2.872823  1.128725 -0.142621
  S    -3.116571 -1.486917  3.580087
  S    -3.713633  1.892628  3.843963
