16  
    
  C     1.695693  0.818549  3.276504
  C     2.043813  4.550315  3.293486
  C     0.626860  0.187598  2.506541
  C     0.809501  4.095519  2.605198
  N     2.757085  1.158954  2.530223
  N     3.013959  4.746182  2.443733
  N     0.918220  0.037500  1.231963
  N     0.899202  3.949613  1.281504
  N    -0.218798  0.347223  4.865116
  N     0.361386  4.115600  5.168562
  S    -0.762281 -0.299646  3.413583
  S    -0.393009  3.673979  3.817493
  S     2.388773  0.648596  0.997531
  S     2.403361  4.440725  0.954355
  S     1.353806  0.740374  4.994364
  S     1.869018  4.839745  5.000856
