16  
    
  C     2.585506  1.152129  3.338875
  C     2.671684  5.226831  3.637818
  C     1.454028  0.583279  2.640040
  C     1.469618  4.532091  3.174548
  N     3.676647  1.373048  2.615038
  N     3.724179  5.102367  2.841664
  N     1.695764  0.323017  1.380236
  N     1.514170  4.246184  1.888720
  N     0.578819  0.924421  4.977906
  N     1.070400  4.956767  5.643097
  S    -0.073736  0.524670  3.530677
  S     0.264580  4.209625  4.367232
  S     3.238056  0.843921  1.033990
  S     3.068356  4.573688  1.360840
  S     2.229065  1.392450  5.028209
  S     2.620096  5.587965  5.371323
