16  
    
  C     1.430020  0.985023  3.386800
  C     1.399462  4.522997  3.310827
  C     0.171120  0.609802  2.786662
  C     0.032105  4.220712  2.900013
  N     2.441046  0.867082  2.555169
  N     2.227722  4.797495  2.297269
  N     0.261902  0.304188  1.500748
  N     0.001571  3.921718  1.611328
  N    -0.207286  0.893352  5.300112
  N    -0.071952  4.457962  5.430214
  S    -1.073652  0.423048  3.961577
  S    -1.118031  4.111087  4.156472
  S     1.890811  0.341262  1.116101
  S     1.483964  4.299760  0.930814
  S     1.378089  1.293263  5.128501
  S     1.473517  4.664804  5.049193
