16  
    
  C     3.618687  1.687231  3.617133
  C     3.154956  5.206447  3.455654
  C     2.359746  1.291835  3.014152
  C     2.008797  4.562119  2.813565
  N     4.629560  1.935597  2.767769
  N     4.177539  5.550472  2.619814
  N     2.321641  1.261322  1.693370
  N     2.111624  4.575923  1.486250
  N     2.039333  1.272581  5.553952
  N     1.400370  5.157131  5.291201
  S     1.158073  1.150316  4.195465
  S     0.711955  4.405643  3.985431
  S     3.847064  1.722885  1.204925
  S     3.621169  5.129518  1.108418
  S     3.489742  2.042774  5.386187
  S     3.003148  5.390732  5.167136
