16  
    
  C     1.565332  0.705424  2.842692
  C     0.913805  3.881654  2.508926
  C     0.358961  0.221402  2.240138
  C    -0.341840  3.516201  1.906158
  N     2.579575  0.782717  1.994961
  N     1.984484  3.998909  1.737797
  N     0.496756 -0.196161  1.008379
  N    -0.189033  3.339219  0.594953
  N    -0.260978  0.716174  4.728567
  N    -0.828548  3.557955  4.380890
  S    -0.962384  0.252824  3.334338
  S    -1.633088  3.181179  2.982375
  S     2.074250  0.149705  0.526439
  S     1.360898  3.716314  0.200007
  S     1.330641  1.151898  4.562639
  S     0.703343  4.074011  4.219144
