16  
    
  C    -3.546991 -2.529340  1.907735
  C    -3.642991  1.848820  1.870514
  C    -4.655903 -3.097560  1.207906
  C    -4.685353  1.026528  1.246451
  N    -2.440678 -2.441896  1.132964
  N    -2.714378  2.220609  0.970709
  N    -4.554803 -3.092398 -0.135440
  N    -4.359149  0.645536  0.001824
  N    -5.453194 -2.569298  3.683869
  N    -5.379081  1.494905  3.665522
  S    -6.045233 -3.334962  2.331789
  S    -5.930493  0.618239  2.318404
  S    -2.969506 -2.707487 -0.434634
  S    -2.993304  1.474427 -0.417285
  S    -3.850772 -2.242192  3.553043
  S    -3.862463  2.239305  3.526106
