16  
    
  C     0.520645 -0.117524  2.801547
  C     0.252127  3.668854  2.912148
  C    -0.739665 -0.466259  2.186465
  C    -0.901596  3.241671  2.111776
  N     1.496202  0.228615  1.948169
  N     1.273323  3.928531  2.091662
  N    -0.626629 -0.725121  0.886869
  N    -0.738074  3.033644  0.817932
  N    -1.148356 -0.504137  4.670989
  N    -1.558491  3.048155  4.633967
  S    -2.040159 -0.686838  3.277463
  S    -2.221368  2.784930  3.155172
  S     0.900381 -0.190568  0.427465
  S     0.796945  3.664300  0.535665
  S     0.451858  0.025084  4.510180
  S     0.090538  3.497234  4.636032
