16  
    
  C    -1.432204 -1.181293  2.186634
  C    -1.752321  2.258490  1.914023
  C    -2.713869 -1.424869  1.580926
  C    -3.043858  2.130321  1.338025
  N    -0.409782 -1.340601  1.331010
  N    -0.702017  2.357747  1.079582
  N    -2.695275 -1.439186  0.235998
  N    -2.990703  1.977409  0.016022
  N    -3.221716 -1.051855  4.051817
  N    -3.434326  2.277149  3.867744
  S    -4.051332 -1.174323  2.665542
  S    -4.263209  1.813444  2.518019
  S    -1.108081 -1.465030 -0.219292
  S    -1.414261  2.263056 -0.438061
  S    -1.600558 -0.789483  3.861504
  S    -1.778829  2.536784  3.641860
