16  
    
  C     1.784639  0.516668  3.035321
  C     1.893435  4.250460  3.356223
  C     0.483874  0.161343  2.436858
  C     0.636166  3.945672  2.697248
  N     2.759178  0.745000  2.150519
  N     2.928616  4.334795  2.516623
  N     0.525569  0.035567  1.124654
  N     0.653016  4.195342  1.364377
  N     0.222408  0.293076  4.970542
  N     0.128226  3.929659  5.238515
  S    -0.727995  0.123252  3.675869
  S    -0.730185  3.872116  3.805273
  S     2.067832  0.439187  0.680987
  S     2.306858  4.249497  0.961857
  S     1.839875  0.577047  4.749213
  S     1.828913  4.228843  4.993650
