16  
    
  C    -1.065534 -0.416713  2.428984
  C    -1.098235  3.137336  2.440775
  C    -2.113947 -1.008003  1.717962
  C    -2.359812  2.764353  1.777301
  N    -0.054813 -0.150511  1.646044
  N    -0.061349  3.059928  1.589191
  N    -2.001043 -1.169788  0.407126
  N    -2.311253  2.475823  0.471707
  N    -2.787680 -1.035826  4.225273
  N    -2.944909  3.163255  4.193516
  S    -3.458980 -1.452593  2.746349
  S    -3.769252  3.045964  2.786183
  S    -0.467090 -0.610153  0.091642
  S    -0.695495  2.669821  0.075943
  S    -1.192914 -0.524538  4.178763
  S    -1.308303  3.271119  4.115809
