16  
    
  C    -4.932416 -2.578343  1.937319
  C    -5.280925  1.001454  1.765600
  C    -6.128920 -2.920627  1.236363
  C    -6.471493  0.458111  1.151698
  N    -3.884327 -2.436519  1.155039
  N    -4.196672  1.187277  0.983301
  N    -5.980595 -3.237323 -0.051117
  N    -6.426349  0.381764 -0.193758
  N    -6.760646 -2.510088  3.677901
  N    -7.132046  1.050972  3.633752
  S    -7.438697 -3.220658  2.304091
  S    -7.883764  0.571103  2.234080
  S    -4.363414 -2.851796 -0.350992
  S    -4.807458  0.824978 -0.572567
  S    -5.086701 -2.336870  3.657256
  S    -5.507893  1.332089  3.457979
