16  
    
  C     2.347311  0.810394  3.525546
  C     1.924836  5.163952  3.081202
  C     1.023186  0.690493  2.944448
  C     0.877181  4.364841  2.422258
  N     3.387146  0.691808  2.697485
  N     2.981948  5.439973  2.303681
  N     1.026631  0.659164  1.617581
  N     1.086143  4.188309  1.138343
  N     0.632115  1.122846  5.418062
  N     0.069321  4.722032  4.798597
  S    -0.245039  0.475185  4.115665
  S    -0.585640  4.120606  3.356432
  S     2.658880  0.629544  1.178274
  S     2.585794  4.748564  0.839073
  S     2.291164  1.092788  5.213840
  S     1.630679  5.202476  4.774552
