16  
    
  C    -0.805422 -0.778874  2.348020
  C    -0.731019  3.080624  2.475172
  C    -1.913339 -1.396343  1.709419
  C    -1.980608  2.686230  1.820735
  N     0.190841 -0.505742  1.532992
  N     0.199948  3.283508  1.550916
  N    -1.713358 -1.826893  0.496213
  N    -1.938175  2.382626  0.523056
  N    -2.764278 -0.944358  4.058475
  N    -2.442006  2.751303  4.423849
  S    -3.419209 -1.514476  2.674195
  S    -3.265749  2.577838  2.971739
  S    -0.209630 -1.252037  0.053659
  S    -0.404630  2.842602  0.061711
  S    -1.167611 -0.454210  3.994196
  S    -0.827859  3.244102  4.162096
