16  
    
  C     1.006685  0.199707  3.001744
  C     0.994870  4.166530  2.639241
  C    -0.248030 -0.056426  2.412618
  C    -0.150918  3.336698  2.210600
  N     2.039548  0.240891  2.135514
  N     1.952310  4.113350  1.760414
  N    -0.212752 -0.101829  1.070895
  N    -0.042809  2.842023  0.988896
  N    -0.744783 -0.178521  4.951143
  N    -0.751914  4.337868  4.516110
  S    -1.628253 -0.206573  3.486693
  S    -1.468286  3.422747  3.376144
  S     1.406712  0.038136  0.610129
  S     1.468907  3.335826  0.401000
  S     0.939702  0.203344  4.761797
  S     0.873423  4.777601  4.257925
