16  
    
  C    -3.793764 -2.476614  1.649529
  C    -3.380816  1.814768  1.597321
  C    -5.088430 -2.486198  0.979732
  C    -4.557614  1.180527  0.958751
  N    -2.721869 -2.257100  0.887575
  N    -2.329773  1.856171  0.799118
  N    -4.992754 -2.520625 -0.347479
  N    -4.434444  0.896508 -0.328482
  N    -5.503228 -2.892362  3.476402
  N    -5.093392  1.447822  3.569001
  S    -6.336242 -2.714645  2.068034
  S    -5.862834  0.854696  2.176389
  S    -3.368734 -2.260566 -0.653822
  S    -2.846269  1.247935 -0.748253
  S    -3.855510 -2.629496  3.387685
  S    -3.566237  2.131656  3.316960
