16  
    
  C     3.216756  1.487715  3.641830
  C     3.243961  4.930140  3.471852
  C     1.925309  1.317405  3.016983
  C     1.976329  4.820374  2.816668
  N     4.266955  1.457864  2.827715
  N     4.283900  5.010947  2.633885
  N     2.027953  1.258308  1.692098
  N     2.065126  4.468422  1.524354
  N     1.510682  1.233919  5.606570
  N     1.351533  5.157962  5.299913
  S     0.656090  1.281016  4.177682
  S     0.600113  4.742305  3.846323
  S     3.662722  1.344896  1.346286
  S     3.671900  4.771408  1.116178
  S     3.088821  1.759805  5.393145
  S     2.991317  5.219738  5.208678
