16  
    
  C    -5.700706 -2.781041  1.490834
  C    -5.534282  0.915596  1.462778
  C    -6.883506 -3.107240  0.794320
  C    -6.750598  0.408237  0.819255
  N    -4.734103 -2.381656  0.674504
  N    -4.490006  1.004840  0.658506
  N    -6.717883 -3.282889 -0.516282
  N    -6.659347  0.259443 -0.525012
  N    -7.631166 -2.789006  3.174007
  N    -7.349020  0.862513  3.232505
  S    -8.252905 -3.255495  1.775705
  S    -8.097038  0.203913  1.938662
  S    -5.198697 -2.797557 -0.834243
  S    -5.057873  0.603904 -0.844567
  S    -6.025986 -2.645197  3.208314
  S    -5.712443  1.010510  3.194121
