16  
    
  C    -3.542055 -2.523277  1.896726
  C    -3.659430  1.891919  1.867156
  C    -4.662043 -3.083485  1.208875
  C    -4.658356  1.027362  1.233750
  N    -2.427714 -2.418123  1.155410
  N    -2.721138  2.243909  0.995825
  N    -4.547262 -3.133538 -0.148710
  N    -4.372354  0.656888 -0.010767
  N    -5.465816 -2.553328  3.671430
  N    -5.379784  1.486515  3.671438
  S    -6.028648 -3.341336  2.336429
  S    -5.951010  0.598940  2.343963
  S    -2.949809 -2.717874 -0.423257
  S    -2.988001  1.472826 -0.434023
  S    -3.838116 -2.220162  3.570960
  S    -3.889357  2.251601  3.546483
