16  
    
  C    -5.191322 -2.470942  1.812904
  C    -5.386417  1.082498  1.561521
  C    -6.430495 -2.927108  1.241154
  C    -6.639208  0.844732  0.889760
  N    -4.121562 -2.429941  0.983895
  N    -4.388137  1.118886  0.669216
  N    -6.387968 -2.951910 -0.095413
  N    -6.548303  0.643599 -0.445366
  N    -6.960321 -2.170210  3.667641
  N    -7.163525  1.087781  3.470271
  S    -7.831825 -2.744760  2.322276
  S    -7.965354  0.933918  1.989059
  S    -4.780050 -2.732909 -0.557743
  S    -4.994022  0.862458 -0.837709
  S    -5.311841 -1.981572  3.448223
  S    -5.465836  1.368773  3.283225
