16  
    
  C    -5.341554 -2.135026  1.613423
  C    -5.364057  1.143401  1.419601
  C    -6.617618 -2.522380  1.005242
  C    -6.589145  0.768324  0.772770
  N    -4.345570 -1.919966  0.711489
  N    -4.326535  1.212377  0.588931
  N    -6.436147 -2.835684 -0.264802
  N    -6.487622  0.509644 -0.541677
  N    -7.040666 -2.575012  3.495621
  N    -7.035932  0.993478  3.278931
  S    -7.941291 -2.853794  2.102748
  S    -7.897128  0.602115  1.918298
  S    -4.896804 -2.578345 -0.708089
  S    -4.862936  0.806713 -0.929090
  S    -5.484671 -2.036347  3.358949
  S    -5.464292  1.376041  3.171438
