16  
    
  C     3.628111  1.667735  3.621966
  C     3.188919  5.176832  3.430429
  C     2.349693  1.283011  3.058629
  C     2.049122  4.592172  2.835568
  N     4.498952  1.894257  2.650638
  N     4.100702  5.508471  2.549535
  N     2.274291  1.228198  1.730516
  N     2.046260  4.526150  1.503526
  N     2.005896  1.326422  5.656863
  N     1.291261  5.143122  5.259104
  S     1.116175  1.054772  4.260045
  S     0.668563  4.352210  3.933468
  S     3.799932  1.689229  1.224362
  S     3.601261  5.085706  1.036119
  S     3.554499  1.921185  5.350479
  S     2.929435  5.439195  5.224012
