16  
    
  C    -2.587374 -1.879752  1.936838
  C    -3.016838  2.088253  1.796012
  C    -3.881223 -2.079861  1.273854
  C    -4.126808  1.586179  1.036080
  N    -1.507881 -1.927154  1.162464
  N    -2.045053  2.532605  1.041017
  N    -3.737104 -2.271911 -0.032586
  N    -3.953015  1.464907 -0.262005
  N    -4.357774 -1.847820  3.813585
  N    -4.805309  1.638277  3.470551
  S    -5.269082 -1.913829  2.414160
  S    -5.502276  1.185553  2.051535
  S    -2.130598 -2.189236 -0.397751
  S    -2.492370  2.229047 -0.523223
  S    -2.729537 -1.713333  3.657538
  S    -3.310007  2.324812  3.454624
