16  
    
  C     1.166609  0.160522  3.046235
  C     0.598715  3.810722  3.173297
  C    -0.049930 -0.287441  2.334436
  C    -0.381810  3.080605  2.339717
  N     2.210344  0.283093  2.225889
  N     1.686447  4.211547  2.479014
  N     0.143427 -0.483489  1.052133
  N    -0.261374  3.277156  1.031694
  N    -0.672801  0.048099  4.878818
  N    -1.336951  2.998811  4.754570
  S    -1.382969 -0.344138  3.475329
  S    -1.870286  2.706152  3.245693
  S     1.701280 -0.101426  0.677089
  S     1.299755  3.848415  0.839504
  S     0.910937  0.555257  4.737706
  S     0.180024  3.739462  4.852277
