16  
    
  C     2.087994  1.001728  3.217916
  C     2.150834  4.490173  2.952147
  C     0.827384  0.668918  2.590558
  C     0.980900  3.899469  2.355598
  N     3.112006  1.058974  2.390595
  N     3.218580  4.552712  2.176374
  N     0.909600  0.608641  1.252724
  N     1.100864  3.784260  1.051919
  N     0.344205  0.882494  5.107837
  N     0.380648  4.256964  4.788385
  S    -0.424479  0.454697  3.730728
  S    -0.394114  3.877236  3.381278
  S     2.511712  0.844118  0.894355
  S     2.693978  4.187961  0.653112
  S     1.954435  1.395133  4.893903
  S     1.985941  4.573199  4.626141
