16  
    
  C    -2.977473 -1.834180  2.196572
  C    -3.330131  1.724504  2.003612
  C    -4.298386 -1.783968  1.580996
  C    -4.610620  1.294942  1.487969
  N    -1.903089 -1.819733  1.419397
  N    -2.343021  1.884713  1.105057
  N    -4.232425 -1.964589  0.259836
  N    -4.667024  1.280923  0.163571
  N    -4.730245 -1.953018  4.133747
  N    -4.930166  1.421541  4.039927
  S    -5.587476 -1.988078  2.700931
  S    -5.831929  1.092777  2.720495
  S    -2.626254 -1.939739 -0.118293
  S    -3.139958  1.660443 -0.404785
  S    -3.114594 -1.661228  3.931601
  S    -3.346972  1.846695  3.811452
