16  
    
  C    -3.954640 -1.896377  1.777017
  C    -3.705402  1.870173  1.859792
  C    -5.127987 -2.360826  1.101456
  C    -4.889827  1.362355  1.200554
  N    -2.962025 -1.699517  0.947037
  N    -2.715861  2.104122  1.035290
  N    -5.043061 -2.549189 -0.232053
  N    -4.908985  1.369275 -0.130498
  N    -5.796465 -1.930085  3.455375
  N    -5.358182  1.492664  3.677391
  S    -6.448272 -2.763019  2.157588
  S    -6.178792  1.137878  2.293880
  S    -3.474227 -2.089688 -0.588473
  S    -3.343808  1.844169 -0.514939
  S    -4.174407 -1.639422  3.445388
  S    -3.750757  1.886704  3.566350
