16  
    
  C    -1.577234 -1.114998  2.680816
  C    -1.689502  2.409212  2.420428
  C    -2.701893 -1.639355  1.951286
  C    -2.898230  2.134060  1.719843
  N    -0.455665 -0.854319  1.941319
  N    -0.682243  2.781612  1.636499
  N    -2.480428 -1.727972  0.611511
  N    -2.780845  1.932266  0.421526
  N    -3.500399 -1.499093  4.422673
  N    -3.554309  2.331127  4.193231
  S    -4.124000 -1.783470  2.899179
  S    -4.328830  2.203080  2.740254
  S    -0.947351 -1.159640  0.340528
  S    -1.158538  2.350688  0.090724
  S    -1.868849 -1.194546  4.464883
  S    -1.945437  2.742945  4.092519
