16  
    
  C     2.306431  0.852135  3.538137
  C     1.964541  5.105877  3.142667
  C     1.007779  0.575547  2.962547
  C     0.863089  4.522426  2.392957
  N     3.318460  0.898433  2.669537
  N     3.138002  5.217899  2.487298
  N     0.987253  0.429410  1.636314
  N     1.081581  4.445257  1.086304
  N     0.593572  0.937341  5.499697
  N     0.032184  4.732457  4.825794
  S    -0.252600  0.646882  4.106426
  S    -0.533733  4.144384  3.392725
  S     2.610821  0.660769  1.155128
  S     2.667176  4.905502  0.902310
  S     2.252583  1.147817  5.220678
  S     1.540611  5.268347  4.809512
