16  
    
  C     3.772218  1.894249  3.739754
  C     3.610719  5.469416  3.594095
  C     2.602388  1.604765  2.987887
  C     2.428855  4.981452  2.915221
  N     4.872259  2.134451  3.029761
  N     4.670570  5.622642  2.779208
  N     2.819275  1.541959  1.670023
  N     2.496833  5.035762  1.597862
  N     1.948738  1.735574  5.422339
  N     1.772746  5.325895  5.438415
  S     1.190430  1.635168  3.977661
  S     1.060497  4.920391  4.026823
  S     4.377238  1.923579  1.401554
  S     4.053939  5.374088  1.178956
  S     3.523079  2.257746  5.404888
  S     3.408995  5.446934  5.337833
