16  
    
  C    -2.676556 -1.923750  2.000368
  C    -2.951645  2.258993  1.852072
  C    -3.917550 -1.969537  1.275421
  C    -3.995912  1.593922  1.154755
  N    -1.601570 -1.850806  1.223670
  N    -1.954222  2.613704  1.036433
  N    -3.795097 -2.228151 -0.019435
  N    -3.898369  1.594525 -0.190021
  N    -4.534411 -1.848447  3.765088
  N    -4.807953  1.735769  3.606083
  S    -5.286776 -2.144098  2.266733
  S    -5.479137  1.403463  2.116316
  S    -2.169297 -2.153385 -0.346015
  S    -2.377846  2.308060 -0.538981
  S    -2.904409 -1.745912  3.733403
  S    -3.252346  2.320941  3.576365
