16  
    
  C     1.138402  0.249404  3.078157
  C     1.002228  4.247226  2.592180
  C    -0.103370  0.087876  2.293455
  C    -0.010745  3.456301  1.977703
  N     2.247636  0.308065  2.386659
  N     2.088653  4.334597  1.832831
  N     0.167769 -0.118384  0.991091
  N     0.168323  3.121956  0.686018
  N    -0.852152  0.157570  4.822580
  N    -0.877543  4.167114  4.301872
  S    -1.602139  0.188927  3.332824
  S    -1.415358  3.221677  2.987033
  S     1.811013 -0.001876  0.774550
  S     1.716944  3.558616  0.360952
  S     0.806846  0.425151  4.826903
  S     0.684785  4.633692  4.329848
