16  
    
  C    -1.538567 -0.984700  2.201416
  C    -1.800838  2.524027  2.031497
  C    -2.795637 -1.318147  1.665251
  C    -3.072059  2.067710  1.480510
  N    -0.484681 -1.028313  1.360514
  N    -0.784544  2.609716  1.192402
  N    -2.738141 -1.587835  0.371277
  N    -2.949173  1.831062  0.195325
  N    -3.188663 -0.971742  4.200821
  N    -3.442444  2.113149  4.022442
  S    -4.100819 -1.212568  2.827569
  S    -4.343658  1.867452  2.654198
  S    -1.149313 -1.446258 -0.067212
  S    -1.389597  2.141230 -0.266080
  S    -1.561356 -0.954847  3.936161
  S    -1.875940  2.582089  3.797763
