16  
    
  C    -1.526198 -1.337014  2.166984
  C    -1.692618  2.311292  1.946056
  C    -2.777340 -1.316843  1.513033
  C    -2.965960  1.966116  1.300756
  N    -0.484535 -1.352287  1.302847
  N    -0.711686  2.419464  1.057380
  N    -2.755566 -1.544912  0.152832
  N    -2.957399  2.054657 -0.024880
  N    -3.228910 -0.989029  4.059312
  N    -3.454669  2.368287  3.804698
  S    -4.107896 -1.187588  2.637881
  S    -4.312874  1.810265  2.487614
  S    -1.142559 -1.394844 -0.198173
  S    -1.348280  2.235890 -0.443157
  S    -1.590287 -0.787434  3.792483
  S    -1.812890  2.440854  3.631013
