16  
    
  C    -4.672660 -2.488290  1.686712
  C    -4.838595  1.168651  1.579132
  C    -5.895747 -3.010922  1.187497
  C    -6.002570  0.617226  0.917514
  N    -3.741818 -2.264425  0.768719
  N    -3.824736  1.445505  0.792568
  N    -5.929038 -3.138612 -0.136631
  N    -5.794656  0.256178 -0.346722
  N    -6.314481 -2.726961  3.647135
  N    -6.576174  0.819926  3.366029
  S    -7.251281 -3.058430  2.322135
  S    -7.284840  0.184946  1.993448
  S    -4.482679 -2.604815 -0.679118
  S    -4.231266  0.876595 -0.745621
  S    -4.788677 -2.144834  3.371936
  S    -5.066039  1.360439  3.324547
