16  
    
  C     1.401169  0.874625  3.343520
  C     1.223863  4.342023  3.121500
  C     0.165642  0.337176  2.864391
  C    -0.033825  4.023833  2.502390
  N     2.352572  0.895998  2.403998
  N     2.146934  4.604377  2.223081
  N     0.206381 -0.076017  1.608487
  N    -0.009639  4.073942  1.164654
  N    -0.270869  0.967624  5.272156
  N    -0.527364  4.186336  5.076821
  S    -1.130891  0.479886  4.032658
  S    -1.258072  3.740269  3.637331
  S     1.731565  0.273544  1.040167
  S     1.536876  4.420464  0.741856
  S     1.345453  1.172330  5.030433
  S     1.105584  4.562162  4.894046
