16  
    
  C    -2.660926 -1.611968  2.123264
  C    -2.408396  2.249559  2.126491
  C    -3.982832 -1.912196  1.566094
  C    -3.643000  2.000809  1.478144
  N    -1.756269 -1.418612  1.168423
  N    -1.400671  2.262326  1.278843
  N    -4.007676 -2.101988  0.279276
  N    -3.655027  1.860416  0.156779
  N    -4.442035 -1.712217  4.040380
  N    -4.167037  2.029043  4.051425
  S    -5.240608 -2.176164  2.662088
  S    -4.976296  1.894875  2.606857
  S    -2.504550 -1.679019 -0.270469
  S    -2.013419  1.947322 -0.232562
  S    -2.785160 -1.447916  3.840575
  S    -2.538863  2.335173  3.896580
