16  
    
  C    -4.740613 -2.662126  1.505458
  C    -4.611941  1.155644  1.518898
  C    -5.967390 -2.963229  0.868245
  C    -5.861626  0.907760  0.868356
  N    -3.783894 -2.507676  0.635659
  N    -3.579877  1.189215  0.708441
  N    -5.976048 -2.998862 -0.461766
  N    -5.775830  0.843309 -0.459140
  N    -6.412374 -2.722954  3.453109
  N    -6.425141  0.733238  3.370577
  S    -7.280894 -2.977413  2.007950
  S    -7.236587  0.640488  1.841157
  S    -4.415430 -2.738416 -0.881393
  S    -4.156917  0.911273 -0.832512
  S    -4.762427 -2.497967  3.248685
  S    -4.744342  0.909739  3.219095
