16  
    
  C     1.479365  0.969199  3.283068
  C     1.660891  4.458690  3.410794
  C     0.283864  0.428613  2.650235
  C     0.300904  4.184357  2.904512
  N     2.421227  1.173584  2.365706
  N     2.616371  4.324814  2.501789
  N     0.398882  0.179567  1.372370
  N     0.294260  3.996873  1.580542
  N    -0.309676  0.843575  5.188956
  N    -0.062327  4.680457  5.425042
  S    -1.093981  0.530513  3.716340
  S    -1.040606  4.204098  4.099509
  S     1.895089  0.706952  0.889622
  S     1.817272  4.071655  1.082702
  S     1.364048  1.335277  4.988486
  S     1.571322  4.870864  5.120742
