16  
    
  C    -0.767846 -0.866287  2.401906
  C    -0.873675  3.082752  2.446707
  C    -1.993479 -1.211197  1.756183
  C    -2.148131  2.707820  1.826997
  N     0.332344 -0.604082  1.674067
  N     0.142296  3.156947  1.600888
  N    -1.791753 -1.465087  0.447813
  N    -2.054276  2.665516  0.514556
  N    -2.680428 -0.905365  4.152826
  N    -2.619042  2.962137  4.407543
  S    -3.331210 -1.645260  2.790986
  S    -3.411688  2.665553  2.967789
  S    -0.194008 -1.012806  0.114065
  S    -0.466793  2.817598  0.104767
  S    -1.093574 -0.580375  4.107824
  S    -0.995068  3.384275  4.175963
