16  
    
  C    -4.676090 -2.871004  1.540526
  C    -4.705804  0.970841  1.432219
  C    -6.002016 -2.996042  0.944164
  C    -5.936799  0.705457  0.733039
  N    -3.697835 -2.738434  0.610992
  N    -3.611008  1.036702  0.655434
  N    -5.960724 -3.148068 -0.379336
  N    -5.833433  0.736215 -0.585598
  N    -6.376672 -2.645956  3.490509
  N    -6.488537  0.781048  3.305262
  S    -7.327819 -2.966653  2.108375
  S    -7.304813  0.706734  1.811031
  S    -4.419706 -2.835101 -0.859767
  S    -4.118973  0.961168 -0.933150
  S    -4.757083 -2.469508  3.195846
  S    -4.838132  1.002013  3.145753
