16  
    
  C     2.521453  1.097376  3.240243
  C     2.602695  4.950781  3.589677
  C     1.387004  0.629355  2.523744
  C     1.370345  4.419466  3.060288
  N     3.619125  1.203729  2.510358
  N     3.566454  5.291908  2.707776
  N     1.606992  0.447073  1.217527
  N     1.478582  4.104971  1.752941
  N     0.615728  1.113168  4.985784
  N     0.994719  4.918955  5.579881
  S     0.057229  0.444869  3.600080
  S     0.196411  4.200488  4.344925
  S     3.255969  0.843224  0.994035
  S     3.003686  4.598505  1.287491
  S     2.298864  1.344821  4.937426
  S     2.487838  5.389754  5.280604
