16  
    
  C     1.470471  0.809892  3.430533
  C     1.251144  4.594721  3.210354
  C     0.207197  0.359311  2.907116
  C    -0.017781  4.223272  2.739097
  N     2.458148  0.817901  2.530006
  N     2.150482  4.721909  2.273734
  N     0.262440  0.066647  1.637960
  N    -0.037566  3.964569  1.431051
  N    -0.232044  0.932973  5.313218
  N    -0.168629  4.194623  5.287589
  S    -1.144598  0.487427  4.035880
  S    -1.245251  3.942700  3.966002
  S     1.812618  0.372366  1.092648
  S     1.465322  4.385504  0.847673
  S     1.385090  1.249887  5.126386
  S     1.380422  4.660034  4.931764
