16  
    
  C     1.395968  0.751022  3.446989
  C     1.281763  4.460137  3.153218
  C     0.158930  0.275534  2.870496
  C    -0.084575  4.169933  2.621859
  N     2.393352  0.885867  2.550548
  N     2.265413  4.695203  2.280978
  N     0.228700 -0.043787  1.564113
  N    -0.046814  4.018635  1.300143
  N    -0.234729  0.962819  5.356540
  N    -0.308431  4.160891  5.161740
  S    -1.139552  0.505914  4.005701
  S    -1.277381  3.854018  3.908302
  S     1.774740  0.352625  1.097730
  S     1.467354  4.408481  0.815467
  S     1.438731  1.238128  5.098213
  S     1.273279  4.644102  4.885810
