16  
    
  C     2.661067  1.060266  3.145051
  C     2.571950  4.933753  3.566361
  C     1.453730  0.621983  2.517266
  C     1.401386  4.323397  2.981605
  N     3.698280  1.158847  2.345310
  N     3.508880  5.297690  2.687084
  N     1.512065  0.505861  1.186774
  N     1.526884  3.941405  1.705816
  N     0.801520  0.843289  5.006568
  N     0.867083  4.576269  5.405421
  S     0.082594  0.384530  3.512701
  S     0.035559  4.249305  4.046345
  S     3.103355  0.791114  0.794759
  S     2.941934  4.675227  1.188272
  S     2.425269  1.300519  4.846616
  S     2.364234  5.218731  5.285347
