16  
    
  C     1.992491  1.106409  2.985240
  C     2.284788  4.347548  3.047834
  C     0.811423  0.560162  2.399376
  C     1.064733  4.085872  2.291067
  N     2.990985  1.280416  2.154872
  N     3.424842  4.400824  2.330382
  N     0.934318  0.195852  1.123480
  N     1.331111  3.710417  1.056246
  N     0.172415  1.111045  4.909220
  N     0.214988  4.425398  4.635470
  S    -0.547754  0.611606  3.455323
  S    -0.357405  3.831453  3.249666
  S     2.450576  0.674435  0.696037
  S     2.885700  3.975681  0.820466
  S     1.853392  1.313336  4.752267
  S     1.873983  4.640659  4.755328
