16  
    
  C    -5.867026 -2.668430  1.196797
  C    -5.646497  0.826301  1.569579
  C    -7.072990 -3.199753  0.575367
  C    -6.827079  0.464558  0.848239
  N    -4.774410 -2.571189  0.455979
  N    -4.600340  0.930652  0.788755
  N    -7.007661 -3.144911 -0.780853
  N    -6.689191  0.280056 -0.446481
  N    -7.369822 -3.312777  3.209669
  N    -7.484587  0.480254  3.356301
  S    -8.263717 -3.484048  1.819378
  S    -8.215463  0.277831  1.893437
  S    -5.348603 -2.851645 -1.105572
  S    -5.072191  0.571735 -0.789229
  S    -5.974477 -2.497272  2.889620
  S    -5.944149  1.092479  3.256786
