16  
    
  C     0.717235  0.305624  3.071379
  C     0.624238  3.913406  2.956793
  C    -0.552662  0.222588  2.438704
  C    -0.555733  3.404964  2.363022
  N     1.780181  0.393962  2.262249
  N     1.658708  3.992031  2.147698
  N    -0.525222 -0.008716  1.130321
  N    -0.383422  2.825626  1.191636
  N    -1.099237  0.243637  5.009004
  N    -1.136133  3.972158  4.816451
  S    -1.939862  0.291703  3.572772
  S    -1.823562  3.228287  3.475700
  S     1.109031  0.134667  0.741699
  S     1.149080  3.371573  0.675474
  S     0.534347  0.486323  4.804225
  S     0.429667  4.393888  4.670109
