16  
    
  C     2.805482  1.548742  3.477079
  C     2.832731  5.282631  3.288282
  C     1.612114  0.914912  3.012852
  C     1.735926  4.570213  2.724723
  N     3.813501  1.713112  2.651430
  N     3.871312  5.539658  2.513585
  N     1.720663  0.632624  1.719241
  N     1.854877  4.467367  1.400014
  N     1.261152  1.224311  5.533222
  N     1.222093  4.789063  5.285763
  S     0.431823  0.630472  4.226007
  S     0.470490  4.267918  3.915194
  S     3.266719  1.035707  1.243729
  S     3.326529  5.103109  0.991681
  S     2.679859  2.003623  5.101051
  S     2.766920  5.464040  5.014583
