16  
    
  C     2.404679  1.090841  3.395305
  C     2.367591  4.890449  3.350391
  C     1.211942  0.732365  2.684726
  C     1.241482  4.229077  2.665029
  N     3.371590  1.467456  2.594526
  N     3.377080  5.166616  2.526851
  N     1.320783  0.775415  1.358237
  N     1.287199  4.250103  1.324475
  N     0.584928  0.545954  5.133566
  N     0.561929  4.223245  5.188075
  S    -0.189146  0.449096  3.626425
  S    -0.150103  3.901024  3.727071
  S     2.861716  1.364582  1.032065
  S     2.881729  4.694362  0.998909
  S     2.169969  1.025101  5.157838
  S     2.203761  4.722755  5.130687
