16  
    
  C    -5.336071 -2.117289  1.619657
  C    -5.359022  1.140367  1.416678
  C    -6.590613 -2.535227  1.009608
  C    -6.593510  0.815695  0.754062
  N    -4.341109 -1.951857  0.724352
  N    -4.326085  1.231916  0.613545
  N    -6.440442 -2.835481 -0.258546
  N    -6.521363  0.517887 -0.559320
  N    -7.040324 -2.577011  3.496541
  N    -7.035627  1.008901  3.303788
  S    -7.932517 -2.845151  2.109931
  S    -7.895506  0.619124  1.918532
  S    -4.899774 -2.586218 -0.695621
  S    -4.863811  0.788968 -0.919936
  S    -5.479740 -2.025218  3.371469
  S    -5.460154  1.373193  3.178021
