16  
    
  C    -4.930786 -2.672042  1.969266
  C    -5.356095  1.164232  1.687882
  C    -6.212583 -2.941766  1.304958
  C    -6.673618  0.818549  1.055662
  N    -3.900782 -2.625313  1.130520
  N    -4.271445  1.051030  0.919944
  N    -6.063972 -3.321065  0.041209
  N    -6.607834  0.686288 -0.241429
  N    -6.772700 -2.762367  3.783597
  N    -7.185111  0.989585  3.510003
  S    -7.621425 -2.859233  2.345276
  S    -8.023782  0.671493  2.134058
  S    -4.462749 -3.034103 -0.358421
  S    -4.937657  0.769593 -0.622784
  S    -5.183295 -2.151427  3.649368
  S    -5.535723  1.302856  3.408086
