16  
    
  C    -0.489433 -0.661244  2.679547
  C    -0.425475  3.442675  2.726777
  C    -1.738781 -1.096680  2.189356
  C    -1.398267  2.509137  2.077534
  N     0.428913 -0.442466  1.758265
  N     0.674133  3.584715  1.959122
  N    -1.676097 -1.405655  0.915676
  N    -1.157403  2.216274  0.785585
  N    -2.175999 -0.818985  4.674205
  N    -2.256906  3.073592  4.473858
  S    -3.107415 -1.048726  3.307545
  S    -2.801899  2.306258  3.059186
  S    -0.260278 -0.910452  0.326069
  S     0.340466  2.835698  0.471930
  S    -0.558457 -0.369305  4.410539
  S    -0.731780  3.716773  4.429090
