16  
    
  C    -4.169672 -2.254443  1.992749
  C    -4.186480  1.476378  1.904616
  C    -5.504142 -2.426563  1.503950
  C    -5.434574  1.168992  1.164152
  N    -3.235079 -2.063584  1.083958
  N    -3.138250  1.424622  1.097737
  N    -5.565127 -2.506957  0.158604
  N    -5.275360  1.083170 -0.161189
  N    -5.791104 -2.187076  4.061528
  N    -6.012461  1.517591  3.615759
  S    -6.760683 -2.349629  2.748853
  S    -6.868768  1.211858  2.171567
  S    -4.010735 -2.212828 -0.365432
  S    -3.655349  1.181552 -0.391656
  S    -4.174836 -1.947678  3.728546
  S    -4.370226  1.491532  3.573308
