16  
    
  C     2.800649  1.405532  3.637049
  C     2.902287  5.325625  3.548463
  C     1.588216  0.842510  3.083340
  C     1.746468  4.802614  2.854850
  N     3.797427  1.690805  2.784333
  N     3.979807  5.469230  2.773555
  N     1.639646  0.583145  1.799443
  N     1.874386  4.770558  1.542844
  N     1.027158  1.501519  5.510046
  N     1.087584  5.022273  5.276300
  S     0.306471  0.709140  4.237363
  S     0.416164  4.517067  3.825400
  S     3.098109  1.105669  1.260046
  S     3.410645  5.287070  1.227867
  S     2.670117  1.647414  5.359880
  S     2.702277  5.339244  5.259114
