16  
    
  C     2.011122  1.187946  3.041286
  C     2.261555  4.460483  3.061784
  C     0.795726  0.659874  2.457643
  C     1.122747  3.850617  2.360789
  N     3.031217  1.291617  2.178461
  N     3.345915  4.483711  2.298273
  N     0.899090  0.317493  1.172320
  N     1.238799  3.729584  1.038057
  N     0.227717  1.066406  4.987741
  N     0.293700  4.360723  4.716841
  S    -0.534480  0.537116  3.520958
  S    -0.366539  3.875572  3.264630
  S     2.487350  0.727860  0.683420
  S     2.904854  3.952861  0.751137
  S     1.819472  1.335420  4.745666
  S     1.862125  4.571564  4.726170
