16  
    
  C     1.410865  0.749874  2.954244
  C     0.981096  4.078592  2.665921
  C     0.205240  0.293289  2.269254
  C    -0.206345  3.630633  1.925661
  N     2.405784  1.034000  2.121191
  N     2.032132  4.340701  1.858241
  N     0.317436  0.114613  0.962218
  N     0.029362  3.384528  0.642669
  N    -0.301622  0.338566  4.862354
  N    -0.927445  3.760630  4.335320
  S    -1.140397  0.115195  3.508516
  S    -1.550673  3.139079  2.967654
  S     1.876671  0.651006  0.573665
  S     1.566654  4.002214  0.303081
  S     1.308153  0.754785  4.701663
  S     0.604644  4.381987  4.261894
