16  
    
  C    -3.970919 -2.046424  1.684544
  C    -3.563985  2.010198  1.758771
  C    -5.152175 -2.541779  1.069868
  C    -4.827679  1.560176  1.083581
  N    -2.917401 -1.788072  0.892660
  N    -2.612996  2.339889  0.887898
  N    -5.100732 -2.582790 -0.270909
  N    -4.728667  1.359479 -0.232399
  N    -5.576649 -2.623132  3.585735
  N    -5.132006  1.297728  3.626304
  S    -6.408893 -2.706516  2.152552
  S    -6.022281  1.043971  2.211855
  S    -3.571294 -2.076301 -0.638111
  S    -3.215659  1.832711 -0.637533
  S    -3.976837 -2.166199  3.442814
  S    -3.657893  2.168970  3.428450
