16  
    
  C    -2.800133 -1.519431  2.004154
  C    -3.172515  1.969451  1.856028
  C    -4.065318 -1.837379  1.428057
  C    -4.300359  1.432846  1.124092
  N    -1.811337 -1.309970  1.125598
  N    -2.056903  2.087576  1.141636
  N    -3.954237 -2.160781  0.134814
  N    -4.081414  1.290440 -0.158792
  N    -4.552185 -1.685577  3.936500
  N    -5.125128  1.728173  3.452037
  S    -5.380788 -1.936719  2.504426
  S    -5.734307  1.137475  2.041115
  S    -2.433136 -1.673207 -0.356945
  S    -2.489388  1.610071 -0.377764
  S    -2.988467 -1.250144  3.735049
  S    -3.508935  2.077451  3.577657
