16  
    
  C    -4.734589 -2.628378  1.500710
  C    -4.568259  1.153913  1.573108
  C    -6.019894 -2.843541  0.853086
  C    -5.839907  0.868709  0.909868
  N    -3.764155 -2.418678  0.592100
  N    -3.527022  1.209469  0.736975
  N    -5.966954 -3.008127 -0.473369
  N    -5.820866  0.874767 -0.393389
  N    -6.430494 -2.712687  3.452251
  N    -6.414198  0.730450  3.354242
  S    -7.292101 -3.001928  2.014909
  S    -7.243165  0.614875  1.870821
  S    -4.379725 -2.706384 -0.904855
  S    -4.142043  0.933819 -0.789894
  S    -4.770640 -2.508416  3.275288
  S    -4.705835  0.915000  3.221019
