16  
    
  C     3.144929  1.620895  3.718604
  C     3.159133  5.261899  3.399747
  C     2.002153  1.102803  3.046519
  C     2.022044  4.669649  2.735988
  N     4.167408  1.789723  2.908208
  N     4.258133  5.209735  2.662371
  N     2.216503  0.788537  1.766770
  N     2.137166  4.475306  1.423320
  N     1.310205  1.626368  5.490988
  N     1.370622  4.841622  5.265765
  S     0.539004  1.136081  4.118870
  S     0.652369  4.439496  3.822080
  S     3.774771  1.292197  1.419468
  S     3.766093  4.815652  1.080460
  S     2.926682  1.861959  5.373113
  S     2.920396  5.276261  5.097715
