16  
    
  C     1.459034  1.072996  3.202329
  C     1.773800  4.528891  3.334684
  C     0.257032  0.607110  2.527696
  C     0.530249  4.088148  2.799113
  N     2.493244  1.182694  2.385638
  N     2.773620  4.632304  2.455483
  N     0.439471  0.427683  1.246485
  N     0.621939  3.790270  1.515163
  N    -0.307233  0.923988  5.116963
  N     0.028295  4.559038  5.292542
  S    -1.021851  0.220773  3.654480
  S    -0.827816  4.292000  3.922382
  S     2.036884  0.770553  0.850366
  S     2.205165  4.009668  1.065329
  S     1.336679  1.238003  4.943622
  S     1.686911  4.855318  5.066929
