16  
    
  C    -5.696604 -2.788438  1.493954
  C    -5.531084  0.915125  1.455959
  C    -6.883748 -3.106346  0.797312
  C    -6.756381  0.406744  0.810613
  N    -4.733989 -2.381825  0.678111
  N    -4.486095  1.015479  0.658965
  N    -6.710790 -3.287368 -0.517021
  N    -6.663735  0.258175 -0.527142
  N    -7.628392 -2.786703  3.178188
  N    -7.352336  0.866366  3.231759
  S    -8.254814 -3.252576  1.781386
  S    -8.095699  0.200691  1.939360
  S    -5.190450 -2.795974 -0.829814
  S    -5.055315  0.604296 -0.849596
  S    -6.025231 -2.646760  3.209760
  S    -5.706023  1.010495  3.199194
