16  
    
  C     1.991595  1.147841  3.010329
  C     2.281267  4.405494  3.059848
  C     0.802378  0.604236  2.423614
  C     1.129680  3.986913  2.334301
  N     3.009683  1.296401  2.165707
  N     3.406656  4.439345  2.323251
  N     0.905492  0.240544  1.159361
  N     1.278331  3.718063  1.032040
  N     0.194420  1.108346  4.974288
  N     0.251721  4.396308  4.639601
  S    -0.536603  0.576485  3.465873
  S    -0.362338  3.851773  3.269035
  S     2.469894  0.698816  0.679817
  S     2.888063  3.959555  0.796372
  S     1.836156  1.317931  4.746343
  S     1.857772  4.605507  4.738410
