16  
    
  C    -2.502126 -1.880124  1.940408
  C    -3.189760  2.184969  1.751966
  C    -3.800651 -1.947726  1.340973
  C    -4.217022  1.454135  0.994515
  N    -1.539016 -1.904814  1.023903
  N    -2.105440  2.360167  0.982778
  N    -3.811246 -2.208997  0.043356
  N    -4.026466  1.320848 -0.320554
  N    -4.304617 -1.648674  3.842695
  N    -5.011807  1.585926  3.416820
  S    -5.184707 -1.854669  2.488993
  S    -5.568594  0.969371  1.964650
  S    -2.208482 -2.143853 -0.460983
  S    -2.509914  1.899845 -0.541952
  S    -2.633610 -1.512591  3.659513
  S    -3.431143  2.219451  3.431885
