16  
    
  C    -3.783856 -2.413656  1.605916
  C    -3.342780  1.642766  1.620257
  C    -5.107957 -2.450688  0.994763
  C    -4.510427  1.154225  1.005604
  N    -2.742710 -2.306313  0.752328
  N    -2.358014  1.927722  0.773204
  N    -5.039883 -2.126234 -0.300991
  N    -4.491251  0.858819 -0.307537
  N    -5.602028 -2.692904  3.521897
  N    -5.072183  1.468702  3.517447
  S    -6.445267 -2.731051  2.088251
  S    -5.861815  0.945107  2.109015
  S    -3.426102 -2.078972 -0.768768
  S    -2.988635  1.432792 -0.756928
  S    -3.926086 -2.598326  3.348712
  S    -3.579044  2.171420  3.208193
