16  
    
  C     1.563288  0.978267  3.240145
  C     1.885817  4.683384  3.267361
  C     0.389557  0.509181  2.570009
  C     0.699501  3.988188  2.730859
  N     2.621362  1.141171  2.444518
  N     2.953073  4.639985  2.422194
  N     0.557481  0.379479  1.239564
  N     0.853748  3.687381  1.409855
  N    -0.250078  0.592323  5.011090
  N     0.109998  4.531934  5.228850
  S    -0.912383  0.104230  3.567869
  S    -0.620393  4.096837  3.783394
  S     2.105555  0.757891  0.930094
  S     2.320069  4.143300  1.010351
  S     1.238681  1.220152  4.904857
  S     1.779093  4.872162  5.045563
