16  
    
  C    -3.080735 -1.473710  2.272906
  C    -3.318292  1.908780  2.023602
  C    -4.276066 -1.967974  1.642074
  C    -4.556487  1.517884  1.394107
  N    -2.028187 -1.342470  1.488706
  N    -2.366958  2.187385  1.125494
  N    -4.127202 -2.017563  0.307978
  N    -4.435678  1.309202  0.104550
  N    -4.847766 -1.555460  4.121552
  N    -4.991259  1.527462  3.970280
  S    -5.681635 -1.784196  2.684984
  S    -5.803429  1.098111  2.547316
  S    -2.557832 -1.611129 -0.056493
  S    -2.897536  1.808108 -0.368473
  S    -3.226031 -1.398025  3.952510
  S    -3.301406  1.869718  3.786507
