16  
    
  C    -0.184360 -0.291202  2.556025
  C     0.069670  3.629897  2.356753
  C    -1.446370 -0.718912  2.013724
  C    -1.237645  3.281153  1.784952
  N     0.804260 -0.182031  1.658484
  N     1.074453  3.704102  1.515355
  N    -1.500231 -0.688929  0.655810
  N    -1.156997  2.958885  0.516101
  N    -1.733759 -0.338053  4.584324
  N    -1.654047  3.516856  4.289191
  S    -2.661974 -0.673986  3.218771
  S    -2.534265  3.035779  2.928992
  S     0.077528 -0.358040  0.159308
  S     0.401090  3.341477  0.017134
  S    -0.115350 -0.098879  4.324658
  S    -0.102857  3.920612  4.079286
