16  
    
  C    -5.786234 -3.014756  1.538348
  C    -6.071312  0.762824  1.349695
  C    -6.934145 -3.498435  0.803884
  C    -7.264236  0.284185  0.718921
  N    -4.664665 -2.969532  0.808983
  N    -5.155755  1.187999  0.490584
  N    -6.722413 -3.610119 -0.503741
  N    -7.192321  0.242849 -0.625493
  N    -7.808842 -3.127524  3.193293
  N    -7.695356  0.240221  3.231060
  S    -8.405950 -3.384281  1.647965
  S    -8.535793 -0.033966  1.844433
  S    -5.144370 -3.246697 -0.775383
  S    -5.748364  0.922625 -0.992692
  S    -6.178513 -3.058482  3.272113
  S    -6.108676  0.810519  3.109138
