16  
    
  C     0.858694  0.079115  2.846857
  C     0.447311  3.812934  3.007767
  C    -0.413982 -0.313670  2.240232
  C    -0.866318  3.563213  2.364726
  N     1.854834  0.204143  1.965462
  N     1.426506  3.801583  2.110885
  N    -0.404246 -0.455541  0.907028
  N    -0.878475  3.680534  1.020718
  N    -0.770496 -0.153752  4.765886
  N    -1.144194  3.105304  4.885268
  S    -1.733168 -0.309526  3.376059
  S    -2.090867  3.252955  3.558227
  S     1.176865 -0.082474  0.483382
  S     0.769043  3.954734  0.617479
  S     0.864275  0.107832  4.579379
  S     0.495341  3.314618  4.658183
