16  
    
  C    -0.160372 -0.410115  2.748141
  C     0.090488  3.411483  2.450367
  C    -1.289003 -0.941890  1.968937
  C    -1.035772  2.853531  1.750542
  N     0.938009 -0.212396  1.986779
  N     1.144859  3.538926  1.623850
  N    -1.097637 -0.949800  0.647181
  N    -0.983596  2.952589  0.415920
  N    -2.112648 -0.691255  4.335625
  N    -1.680665  2.891084  4.248502
  S    -2.679807 -1.340613  2.921548
  S    -2.339899  2.458594  2.785449
  S     0.449458 -0.493579  0.466493
  S     0.612835  3.353216  0.046927
  S    -0.495631 -0.276137  4.444868
  S    -0.073061  3.491550  4.182169
