16  
    
  C     2.175636  1.308204  3.409577
  C     2.249259  4.780846  3.246154
  C     1.000170  0.829455  2.742024
  C     1.044671  4.258579  2.591023
  N     3.177283  1.602807  2.618383
  N     3.317021  4.915403  2.447475
  N     1.162718  0.661414  1.435816
  N     1.033046  4.415512  1.250830
  N     0.514939  0.727869  5.312556
  N     0.617361  4.242766  5.089953
  S    -0.268469  0.491177  3.798844
  S    -0.142023  3.858609  3.732398
  S     2.784147  1.149250  1.118024
  S     2.644323  4.844152  0.955763
  S     2.117362  1.051612  5.121028
  S     2.213740  4.733367  4.979085
