16  
    
  C     2.262383  1.096829  3.457084
  C     2.252787  4.784016  3.167222
  C     1.011015  0.701502  2.855034
  C     1.025066  4.270450  2.544778
  N     3.228453  1.288331  2.583427
  N     3.282670  4.977893  2.299351
  N     1.009149  0.636854  1.526745
  N     0.954046  4.437274  1.200554
  N     0.479753  0.824486  5.412645
  N     0.530675  4.265468  5.045292
  S    -0.328742  0.476968  3.913965
  S    -0.303277  3.990024  3.726468
  S     2.602429  1.041494  1.050673
  S     2.508914  4.970489  0.795412
  S     2.047106  1.335746  5.160747
  S     2.104375  4.700824  4.916061
