16  
    
  C     2.581147  0.965875  3.106663
  C     2.475217  4.900450  3.494221
  C     1.374441  0.523031  2.433242
  C     1.260216  4.491602  2.780513
  N     3.593008  1.217203  2.283401
  N     3.537312  5.194728  2.740069
  N     1.545769  0.381315  1.136690
  N     1.507124  4.238796  1.481659
  N     0.904154  0.634677  4.975002
  N     0.743278  4.477243  5.428316
  S     0.016710  0.456800  3.596145
  S    -0.037181  4.064076  3.963256
  S     3.150153  0.927440  0.768477
  S     3.112446  4.650981  1.216578
  S     2.453359  1.194085  4.806611
  S     2.282583  5.137004  5.222329
