16  
    
  C    -5.838267 -3.073638  1.527550
  C    -6.158919  0.902444  1.392909
  C    -6.986751 -3.394872  0.764196
  C    -7.276705  0.157922  0.852507
  N    -4.675134 -3.007665  0.896170
  N    -5.237896  1.326222  0.530726
  N    -6.714258 -3.581292 -0.520773
  N    -7.326781  0.128343 -0.461725
  N    -7.663634 -3.326211  3.276600
  N    -7.561946  0.257594  3.357842
  S    -8.380786 -3.628784  1.837165
  S    -8.339228 -0.380582  2.037566
  S    -5.062809 -3.309292 -0.645326
  S    -5.901565  0.859396 -0.955451
  S    -6.035275 -2.882836  3.200886
  S    -6.066967  0.941309  3.162750
