16  
    
  C     3.730191  2.114640  3.664605
  C     3.492112  5.429726  3.588888
  C     2.579990  1.614114  2.925220
  C     2.278123  4.930814  2.957536
  N     4.794378  2.407956  2.923814
  N     4.511809  5.458527  2.759016
  N     2.765477  1.277774  1.658168
  N     2.312029  4.875184  1.626644
  N     1.782649  1.985764  5.360185
  N     1.778597  4.906161  5.410333
  S     1.097218  1.438156  3.910740
  S     0.936639  4.673159  4.012397
  S     4.339428  1.781602  1.325293
  S     3.850001  5.272983  1.238486
  S     3.426360  2.210431  5.342929
  S     3.374390  5.384744  5.301940
