16  
    
  C    -5.024112 -2.570044  1.923984
  C    -5.436743  1.208995  1.631196
  C    -6.310192 -2.829635  1.296455
  C    -6.691840  0.932459  0.926832
  N    -4.006172 -2.495813  1.050684
  N    -4.389439  1.088348  0.843826
  N    -6.194682 -3.248814  0.034910
  N    -6.698229  0.743257 -0.382561
  N    -6.853415 -2.356580  3.800971
  N    -7.193225  1.078965  3.464802
  S    -7.680922 -2.739905  2.412874
  S    -8.010783  0.810439  2.094138
  S    -4.577493 -3.100384 -0.355764
  S    -4.989396  0.789969 -0.720054
  S    -5.204698 -2.181434  3.600665
  S    -5.546482  1.256875  3.405912
