16  
    
  C     1.384292  0.899923  3.249698
  C     1.150400  4.496672  3.068779
  C     0.108274  0.418852  2.748350
  C    -0.001570  3.919908  2.427316
  N     2.321318  0.888927  2.342503
  N     2.214743  4.600220  2.266133
  N     0.112082 -0.008375  1.489883
  N     0.110168  3.934560  1.105059
  N    -0.303174  0.880298  5.292031
  N    -0.644314  4.121106  4.847803
  S    -1.173584  0.366124  3.911164
  S    -1.403473  3.643729  3.375013
  S     1.676983  0.221420  0.958965
  S     1.654946  4.416647  0.696994
  S     1.361804  1.204929  5.006930
  S     0.964726  4.420290  4.760804
