16  
    
  C    -5.192472 -2.465459  1.771961
  C    -5.313153  1.173214  1.470315
  C    -6.485278 -2.799033  1.163433
  C    -6.650341  0.970667  0.877556
  N    -4.187905 -2.353718  0.891221
  N    -4.245771  1.183565  0.676051
  N    -6.388377 -2.946757 -0.151395
  N    -6.605749  0.635760 -0.415782
  N    -6.993887 -2.337950  3.639179
  N    -7.095121  1.108598  3.359990
  S    -7.859920 -2.737039  2.299846
  S    -7.990732  0.867823  1.985056
  S    -4.809009 -2.653578 -0.598387
  S    -4.964701  0.799165 -0.848508
  S    -5.384015 -1.924647  3.426687
  S    -5.468251  1.340027  3.218524
