16  
    
  C     3.014869  1.431485  3.369779
  C     3.075475  5.050642  3.364181
  C     1.789453  1.153557  2.668188
  C     1.846986  4.837357  2.590108
  N     4.077852  1.602980  2.600770
  N     4.142308  5.165666  2.567924
  N     1.916676  1.113990  1.323343
  N     2.083855  4.488626  1.297109
  N     1.245917  1.529200  5.168404
  N     1.119854  5.054033  5.091604
  S     0.384940  1.138169  3.779203
  S     0.455959  4.627333  3.611667
  S     3.493806  1.429573  0.970611
  S     3.646862  4.816803  0.966125
  S     2.913809  1.628236  5.065389
  S     2.769835  5.258827  5.091567
