16  
    
  C     0.974010  0.227272  2.916888
  C     0.554998  3.469166  2.808583
  C    -0.197795 -0.132849  2.224681
  C    -0.664483  3.153221  2.053172
  N     1.954578  0.613572  2.156786
  N     1.539020  3.950243  2.080068
  N    -0.080922 -0.132747  0.901303
  N    -0.521921  3.120109  0.708747
  N    -0.761222 -0.196311  4.698689
  N    -1.322962  3.247478  4.538883
  S    -1.523388 -0.507177  3.241172
  S    -1.978020  2.775942  3.128973
  S     1.425976  0.384095  0.570455
  S     1.121311  3.570693  0.489525
  S     0.814859  0.298597  4.643120
  S     0.285658  3.691686  4.495586
