16  
    
  C     3.553896  2.142372  3.594309
  C     3.402672  5.343126  3.532709
  C     2.438849  1.594949  2.876009
  C     2.157646  4.918928  2.894677
  N     4.614431  2.269235  2.875407
  N     4.365960  5.600602  2.666883
  N     2.666978  1.335437  1.589296
  N     2.213678  4.817037  1.560529
  N     1.880817  1.726358  5.431043
  N     1.603115  4.903601  5.473821
  S     1.126323  1.316688  4.040341
  S     0.889346  4.549260  4.045130
  S     4.250854  1.698391  1.325206
  S     3.772190  5.137234  1.108246
  S     3.447282  2.170272  5.303835
  S     3.226164  5.352555  5.318100
