16  
    
  C     0.828163  0.339755  2.982203
  C     0.531161  3.758497  2.924091
  C    -0.391801  0.060232  2.328711
  C    -0.737637  3.401036  2.392321
  N     1.880111  0.402791  2.190373
  N     1.532702  3.788999  2.047485
  N    -0.249659 -0.188707  1.028638
  N    -0.784973  3.551011  1.060660
  N    -0.927476  0.285418  4.838598
  N    -1.102011  3.614344  4.922963
  S    -1.700276 -0.097994  3.433514
  S    -2.056272  3.288393  3.628955
  S     1.340658  0.014682  0.664872
  S     0.761882  3.547699  0.571982
  S     0.668275  0.702623  4.664713
  S     0.521228  3.922220  4.650243
