16  
    
  C     1.487903  0.691253  2.915271
  C     0.868738  3.862607  2.547974
  C     0.253738  0.254092  2.287636
  C    -0.308326  3.593873  1.833045
  N     2.582443  0.615197  2.143860
  N     1.910460  4.183230  1.771126
  N     0.470569 -0.159999  1.029465
  N    -0.052069  3.361329  0.544131
  N    -0.336624  0.787888  4.617328
  N    -0.898369  3.672079  4.351078
  S    -1.148948  0.299973  3.282453
  S    -1.627883  3.169436  2.883027
  S     2.078658  0.004080  0.732069
  S     1.517001  3.737540  0.248617
  S     1.265717  1.063540  4.583479
  S     0.688003  4.052324  4.308267
