16  
    
  C     3.638570  1.665696  3.627760
  C     3.191138  5.191383  3.429342
  C     2.359015  1.287385  3.051621
  C     2.053447  4.566333  2.837959
  N     4.512342  1.896928  2.667496
  N     4.099573  5.509258  2.552678
  N     2.266480  1.227486  1.712145
  N     2.048720  4.541358  1.495708
  N     2.010546  1.316923  5.647675
  N     1.307776  5.150582  5.264688
  S     1.125106  1.067800  4.250129
  S     0.673158  4.360188  3.943067
  S     3.803982  1.696202  1.223101
  S     3.608625  5.091938  1.041705
  S     3.544937  1.937989  5.357569
  S     2.933518  5.431332  5.221707
