16  
    
  C     1.610711  0.907690  3.246247
  C     1.995226  4.488555  3.359782
  C     0.451238  0.364098  2.547371
  C     0.782321  4.085745  2.704435
  N     2.665584  1.154322  2.509617
  N     2.937126  4.726416  2.448024
  N     0.651201  0.222974  1.227269
  N     0.820158  3.776817  1.427050
  N    -0.270139  0.427764  5.038413
  N     0.207124  4.473692  5.153050
  S    -0.928437  0.036798  3.513526
  S    -0.527503  3.940202  3.798043
  S     2.209221  0.762790  0.944840
  S     2.426134  4.189019  0.917601
  S     1.265131  1.201363  4.921005
  S     1.785362  4.907660  4.994865
