16  
    
  C    -4.182724 -1.993621  1.954590
  C    -4.195999  1.350919  1.838998
  C    -5.486960 -2.336563  1.455435
  C    -5.456916  1.311652  1.053383
  N    -3.275179 -2.066519  1.008813
  N    -3.121375  1.395792  1.070302
  N    -5.608542 -2.510390  0.129934
  N    -5.277780  1.080624 -0.264035
  N    -5.700270 -2.279527  3.975086
  N    -6.098828  1.567783  3.595841
  S    -6.735386 -2.290658  2.667406
  S    -6.814218  1.244323  2.153379
  S    -4.029647 -2.365230 -0.449392
  S    -3.565172  1.150400 -0.538463
  S    -4.050257 -2.035950  3.694377
  S    -4.460347  1.498094  3.546317
