16  
    
  C    -4.676401 -2.487839  1.686693
  C    -4.842358  1.171443  1.581867
  C    -5.892246 -3.026050  1.187293
  C    -6.005964  0.627972  0.904625
  N    -3.738388 -2.267752  0.765137
  N    -3.821467  1.448938  0.791121
  N    -5.933745 -3.139524 -0.138147
  N    -5.798492  0.255024 -0.357605
  N    -6.311248 -2.731747  3.650156
  N    -6.570536  0.816129  3.365869
  S    -7.252623 -3.053572  2.320535
  S    -7.280536  0.190381  1.986667
  S    -4.480692 -2.607787 -0.680734
  S    -4.231292  0.875807 -0.745719
  S    -4.788272 -2.145586  3.367332
  S    -5.060246  1.356016  3.321541
