16  
    
  C    -2.144578 -0.844126  2.263187
  C    -2.184893  2.446212  1.947467
  C    -3.300367 -1.400394  1.679081
  C    -3.479035  2.106113  1.354679
  N    -1.050606 -0.781972  1.475475
  N    -1.263628  2.604206  1.016046
  N    -3.136952 -1.681958  0.376015
  N    -3.428668  1.727171  0.064895
  N    -3.898053 -1.159087  4.083078
  N    -3.873956  2.369386  3.921705
  S    -4.696699 -1.347540  2.661009
  S    -4.723498  1.980690  2.548626
  S    -1.575533 -1.305033  0.011292
  S    -1.863867  2.050897 -0.400116
  S    -2.288712 -0.778907  3.996721
  S    -2.255286  2.654566  3.713531
