16  
    
  C    -1.833455 -0.987761  2.367150
  C    -1.864820  2.452695  2.630011
  C    -3.111077 -1.189683  1.766266
  C    -3.042165  1.958225  1.878729
  N    -0.844906 -0.994909  1.472244
  N    -0.828732  2.667840  1.823888
  N    -3.083971 -1.553212  0.480602
  N    -2.876517  1.897226  0.553132
  N    -3.375244 -1.251277  4.372264
  N    -3.697923  2.086662  4.337688
  S    -4.307266 -1.407582  3.004050
  S    -4.439095  1.610289  2.918636
  S    -1.506023 -1.362827  0.012521
  S    -1.290739  2.212703  0.272939
  S    -1.811365 -0.722224  4.064383
  S    -2.114414  2.538117  4.287209
