16  
    
  C    -2.527666 -1.202940  2.177030
  C    -2.584307  2.508339  2.374709
  C    -3.738127 -1.729361  1.507019
  C    -3.749805  1.899322  1.723675
  N    -1.511329 -0.956852  1.380958
  N    -1.697031  2.970977  1.485384
  N    -3.595266 -1.804140  0.208892
  N    -3.621668  1.767256  0.425131
  N    -4.270813 -1.796477  4.008552
  N    -4.373537  2.021180  4.178194
  S    -5.067556 -2.022882  2.565905
  S    -5.042900  1.392702  2.795550
  S    -2.052167 -1.422014 -0.154677
  S    -2.252056  2.580199 -0.022216
  S    -2.797786 -1.027818  3.962063
  S    -2.839749  2.593391  4.088722
