16  
    
  C    -0.201694 -0.258996  2.464779
  C    -0.369343  3.294203  2.515348
  C    -1.254577 -0.931327  1.788856
  C    -1.702781  3.077505  1.949672
  N     0.892763 -0.151265  1.736434
  N     0.605968  3.549836  1.643992
  N    -1.002087 -1.070120  0.471924
  N    -1.647562  2.868830  0.646049
  N    -1.912910 -0.630856  4.248010
  N    -2.010257  3.162090  4.594968
  S    -2.590857 -1.200147  2.860597
  S    -2.915882  2.987818  3.187897
  S     0.513602 -0.560144  0.176706
  S    -0.071140  3.154303  0.158767
  S    -0.371816  0.025631  4.172237
  S    -0.365217  3.437578  4.242496
