16  
    
  C    -4.199264 -2.551036  1.577566
  C    -4.285217  1.633258  1.958564
  C    -5.475661 -2.961034  0.977937
  C    -5.371413  0.947704  1.382839
  N    -3.242708 -2.312576  0.704011
  N    -3.172176  1.753567  1.242698
  N    -5.298350 -3.286950 -0.317650
  N    -5.175071  0.684557  0.084923
  N    -5.967536 -2.546194  3.484483
  N    -6.244664  1.597917  3.779659
  S    -6.768849 -2.855109  2.057855
  S    -6.841375  0.986286  2.349087
  S    -3.797537 -2.822404 -0.762185
  S    -3.612672  1.134722 -0.309935
  S    -4.328745 -2.042783  3.261427
  S    -4.633225  1.955363  3.625202
