16  
    
  C    -0.039522 -0.555278  2.461354
  C    -0.274846  3.346463  2.573938
  C    -1.278488 -1.009610  1.811446
  C    -1.366930  2.636184  2.023466
  N     0.981024 -0.508837  1.613755
  N     0.811919  3.444572  1.804101
  N    -1.267787 -0.994627  0.463196
  N    -1.238937  2.409404  0.721425
  N    -1.680149 -0.856764  4.327534
  N    -1.944986  2.866208  4.552602
  S    -2.474720 -1.290807  2.964937
  S    -2.660437  2.234972  3.149364
  S     0.391466 -0.780029  0.072769
  S     0.271744  2.943456  0.295502
  S    -0.052180 -0.419956  4.180428
  S    -0.400424  3.473619  4.300671
