16  
    
  C    -1.293047 -0.927426  2.187180
  C    -1.510246  2.972501  1.995699
  C    -2.491053 -1.270271  1.526304
  C    -2.573734  2.283535  1.350853
  N    -0.259918 -0.712618  1.353236
  N    -0.566479  3.380451  1.191185
  N    -2.389704 -1.441783  0.199357
  N    -2.401722  2.157545  0.054463
  N    -3.136659 -1.082396  4.000254
  N    -3.292721  2.578868  3.808307
  S    -3.850551 -1.668191  2.559845
  S    -3.868671  1.848459  2.437864
  S    -0.850745 -0.989053 -0.171477
  S    -0.940907  2.802564 -0.330177
  S    -1.492649 -0.774615  3.875887
  S    -1.862851  3.399075  3.681212
