16  
    
  C     3.643607  1.824528  3.642257
  C     3.203600  5.190512  3.480167
  C     2.429700  1.367592  3.033339
  C     1.980254  4.802114  2.825961
  N     4.603155  1.979358  2.736137
  N     4.196679  5.549074  2.696283
  N     2.476044  1.322405  1.694484
  N     2.155661  4.534617  1.527174
  N     2.023902  1.282175  5.533009
  N     1.473164  5.099377  5.318951
  S     1.087802  1.206057  4.155211
  S     0.733078  4.431350  3.988832
  S     3.974944  1.731338  1.225677
  S     3.651417  5.172057  1.189907
  S     3.464685  2.122595  5.333113
  S     3.131107  5.373433  5.112583
