16  
    
  C     3.241947  1.460758  3.661918
  C     3.143441  5.124375  3.494101
  C     1.945406  1.387662  2.971384
  C     1.925153  4.716425  2.813168
  N     4.263517  1.408947  2.852422
  N     4.204614  5.018980  2.724032
  N     1.984988  1.341661  1.640550
  N     2.045841  4.632525  1.470448
  N     1.625811  1.248132  5.512662
  N     1.398123  5.144105  5.251295
  S     0.654127  1.336320  4.183259
  S     0.533767  4.746386  3.902306
  S     3.613215  1.328243  1.255748
  S     3.662070  4.679723  1.192586
  S     3.222587  1.725291  5.338730
  S     3.090887  5.222162  5.197185
