16  
    
  C    -3.966386 -1.808718  1.667168
  C    -3.832927  1.598317  1.781931
  C    -5.216437 -2.143522  1.050854
  C    -5.112810  1.240680  1.121629
  N    -2.890542 -1.664904  0.881609
  N    -2.814409  1.611991  0.932130
  N    -5.003395 -2.559022 -0.161351
  N    -5.078252  1.179172 -0.197185
  N    -5.779052 -2.075938  3.486609
  N    -5.547103  1.477322  3.665735
  S    -6.612498 -2.311308  2.036224
  S    -6.436886  1.337248  2.233290
  S    -3.400771 -2.310032 -0.581915
  S    -3.458009  1.430032 -0.627215
  S    -4.187088 -1.533099  3.381026
  S    -3.906257  1.731938  3.489621
