16  
    
  C     1.159535  0.196104  2.993360
  C     0.639142  3.908352  3.193177
  C    -0.019798 -0.421067  2.434908
  C    -0.482371  3.305007  2.497620
  N     2.133608  0.303869  2.097261
  N     1.792888  4.041300  2.490793
  N     0.079173 -0.765206  1.171082
  N    -0.337878  3.299107  1.162825
  N    -0.539657  0.206072  4.883471
  N    -1.102434  3.190782  4.952436
  S    -1.362645 -0.495528  3.584328
  S    -1.888462  2.920589  3.473329
  S     1.575158 -0.304692  0.639646
  S     1.236432  3.823030  0.877677
  S     1.106555  0.623337  4.689247
  S     0.503888  3.627889  4.876895
