16  
    
  C    -2.885049 -1.798405  1.977684
  C    -2.765188  2.285441  1.957994
  C    -4.054388 -2.325715  1.267000
  C    -4.014130  2.107279  1.224115
  N    -1.772416 -1.679048  1.269442
  N    -1.677247  2.428113  1.211128
  N    -3.819401 -2.311294 -0.032524
  N    -3.810578  1.973354 -0.092918
  N    -4.729204 -2.139757  3.718109
  N    -4.581450  1.885622  3.754872
  S    -5.476831 -2.463528  2.218990
  S    -5.366037  1.661316  2.306954
  S    -2.216228 -1.882980 -0.293331
  S    -2.174661  2.109222 -0.365226
  S    -3.160586 -1.689677  3.680258
  S    -2.988546  2.424164  3.712559
