16  
    
  C     2.359116  0.847577  3.518418
  C     1.952039  5.018294  3.035380
  C     1.073329  0.704208  2.922922
  C     0.828366  4.375380  2.394359
  N     3.336440  0.813945  2.616476
  N     2.963201  5.335033  2.241756
  N     1.046479  0.600021  1.612242
  N     1.097467  3.980454  1.182215
  N     0.605162  1.009521  5.438635
  N     0.123645  4.490080  4.856059
  S    -0.181873  0.534526  4.033519
  S    -0.535283  4.172321  3.374860
  S     2.627734  0.606076  1.156214
  S     2.536182  4.729065  0.730521
  S     2.277503  1.057786  5.266324
  S     1.660684  5.141319  4.762614
