16  
    
  C    -1.346724 -1.001896  2.314420
  C    -1.600066  2.878974  2.036197
  C    -2.512305 -1.289329  1.551942
  C    -2.559220  2.079274  1.351297
  N    -0.221673 -0.721826  1.577436
  N    -0.541120  3.111163  1.287091
  N    -2.243153 -1.466998  0.232689
  N    -2.393306  1.887476  0.036189
  N    -3.259342 -1.521029  4.033569
  N    -3.317469  2.384121  3.843536
  S    -3.974459 -1.665554  2.549648
  S    -3.872850  1.637946  2.443355
  S    -0.682385 -1.021166  0.003176
  S    -0.852023  2.522452 -0.244516
  S    -1.747959 -0.834732  3.994116
  S    -1.878830  3.235950  3.703762
