16  
    
  C     2.614024  1.104710  3.418614
  C     2.952459  5.231562  3.637951
  C     1.468152  0.700144  2.680564
  C     1.619049  5.060652  3.103987
  N     3.649476  1.426486  2.626498
  N     3.910323  4.838003  2.787958
  N     1.639404  0.678189  1.367075
  N     1.576602  4.796234  1.783038
  N     0.691505  0.831073  5.112060
  N     1.307013  5.526756  5.700085
  S     0.142495  0.257018  3.685030
  S     0.402583  5.369088  4.327561
  S     3.208562  1.225127  1.126457
  S     3.177546  4.703108  1.332131
  S     2.310131  1.111145  5.147108
  S     2.943367  5.428529  5.418249
