16  
    
  C    -4.171460 -2.011618  1.812263
  C    -4.193235  1.524252  1.874324
  C    -5.432006 -2.438256  1.140064
  C    -5.380599  0.949447  1.342745
  N    -3.167488 -2.068516  0.923336
  N    -3.225541  1.688424  0.994104
  N    -5.370016 -2.774801 -0.137148
  N    -5.278281  0.521692  0.093733
  N    -6.017747 -2.014638  3.633025
  N    -5.981557  1.704068  3.744531
  S    -6.839516 -2.459407  2.223092
  S    -6.721950  0.928780  2.447547
  S    -3.777880 -2.550626 -0.561400
  S    -3.765057  1.050148 -0.388590
  S    -4.382862 -1.503070  3.475059
  S    -4.323355  2.140120  3.540257
