16  
    
  C     3.177735  1.642742  3.710883
  C     3.182523  5.130420  3.430422
  C     2.007661  1.128483  3.020764
  C     2.048893  4.636491  2.712808
  N     4.232523  1.745509  2.905469
  N     4.196166  5.386634  2.606599
  N     2.144372  0.774553  1.741106
  N     2.161870  4.448775  1.420414
  N     1.373943  1.461796  5.500015
  N     1.336750  4.727559  5.184710
  S     0.618147  1.082769  4.077481
  S     0.639079  4.283282  3.732840
  S     3.724913  1.143387  1.347000
  S     3.699829  4.835518  1.066116
  S     2.954062  2.038991  5.352203
  S     2.905743  5.376461  5.177438
