16  
    
  C    -4.222385 -2.094224  1.694883
  C    -4.241854  1.668468  1.894842
  C    -5.473656 -2.405930  1.133174
  C    -5.397997  0.955511  1.327369
  N    -3.152608 -2.173563  0.917046
  N    -3.198511  1.643671  1.074715
  N    -5.365298 -2.776177 -0.124183
  N    -5.274159  0.587668  0.030227
  N    -5.992546 -1.943709  3.567935
  N    -6.007123  1.608468  3.798529
  S    -6.769260 -2.566064  2.205876
  S    -6.756185  0.964347  2.438986
  S    -3.792092 -2.632476 -0.548559
  S    -3.660424  0.994655 -0.438345
  S    -4.363691 -1.647437  3.351520
  S    -4.454563  2.190073  3.539324
