16  
    
  C     3.113107  1.583970  3.714465
  C     3.142990  5.180296  3.401189
  C     1.935033  1.105586  3.032661
  C     1.937869  4.688520  2.726759
  N     4.202404  1.838493  2.994014
  N     4.276312  5.177595  2.691861
  N     2.172871  0.829695  1.756566
  N     2.173727  4.472947  1.429402
  N     1.307761  1.663464  5.479607
  N     1.353871  4.941728  5.219785
  S     0.597326  1.145185  4.092201
  S     0.624846  4.482272  3.824024
  S     3.738894  1.303817  1.420432
  S     3.747049  4.821687  1.130192
  S     2.943186  1.807423  5.421399
  S     3.004924  5.262232  5.095098
