16  
    
  C    -1.419946 -1.118803  2.620429
  C    -1.548363  2.618866  2.404967
  C    -2.520046 -1.574922  1.845193
  C    -2.712906  2.216378  1.588684
  N    -0.264588 -0.949205  1.947282
  N    -0.450072  2.729659  1.650630
  N    -2.264330 -1.553225  0.534879
  N    -2.432452  1.884816  0.318643
  N    -3.398405 -1.755380  4.240683
  N    -3.456086  2.469383  4.030600
  S    -3.980808 -1.968679  2.704574
  S    -4.044552  1.824136  2.626777
  S    -0.695361 -1.201285  0.359032
  S    -0.807159  2.259632  0.090581
  S    -1.888201 -0.985435  4.307075
  S    -1.887296  3.032889  4.028454
