16  
    
  C     2.268212  1.010850  3.467907
  C     2.146451  4.741985  3.178712
  C     1.017915  0.652284  2.863185
  C     0.908827  4.521939  2.521292
  N     3.253936  1.167336  2.568059
  N     3.084888  5.158778  2.321452
  N     1.002258  0.617594  1.521350
  N     1.015888  4.395183  1.200027
  N     0.475676  0.912421  5.312721
  N     0.451232  4.332212  5.115748
  S    -0.276885  0.470550  3.980364
  S    -0.302254  4.069242  3.558978
  S     2.498325  0.963535  1.060864
  S     2.495911  4.927369  0.789366
  S     2.038172  1.385399  5.219135
  S     2.085332  4.686625  4.911572
