16  
    
  C    -1.358327 -0.659929  1.848982
  C    -1.311780  3.351331  2.081922
  C    -2.620792 -1.284519  1.438834
  C    -2.485400  2.823417  1.451771
  N    -0.508419 -0.582789  0.863215
  N    -0.357600  3.691570  1.218125
  N    -2.753359 -1.466462  0.137388
  N    -2.403440  2.525571  0.151511
  N    -2.687724 -0.954903  4.095561
  N    -2.937753  2.844335  3.975228
  S    -3.656761 -1.478741  2.814887
  S    -3.684390  2.194381  2.643674
  S    -1.259528 -1.110064 -0.542773
  S    -0.936758  3.232043 -0.286436
  S    -1.193871 -0.336058  3.582576
  S    -1.509818  3.619761  3.741629
