16  
    
  C    -3.785689 -2.409200  1.607610
  C    -3.342252  1.641305  1.615446
  C    -5.109226 -2.461503  0.996300
  C    -4.514026  1.158052  1.004535
  N    -2.738348 -2.308160  0.745011
  N    -2.359312  1.922195  0.769790
  N    -5.034799 -2.129918 -0.294900
  N    -4.489437  0.855750 -0.307900
  N    -5.604403 -2.704428  3.522135
  N    -5.070087  1.467196  3.517558
  S    -6.442831 -2.728716  2.089263
  S    -5.856497  0.944915  2.111228
  S    -3.422023 -2.082543 -0.769650
  S    -2.982505  1.426596 -0.757679
  S    -3.926543 -2.598802  3.348752
  S    -3.582560  2.169937  3.212983
