16  
    
  C     2.026491  1.012954  3.205136
  C     2.126240  4.479710  2.920622
  C     0.800194  0.679319  2.563698
  C     0.954112  3.878387  2.356009
  N     3.082125  1.090002  2.390903
  N     3.250824  4.539389  2.214402
  N     0.868559  0.613530  1.238746
  N     1.133560  3.690220  1.041762
  N     0.355277  0.873171  5.135761
  N     0.427270  4.232060  4.758223
  S    -0.445302  0.444820  3.681644
  S    -0.408925  3.891911  3.365255
  S     2.529327  0.840892  0.870717
  S     2.735845  4.171390  0.657308
  S     1.948975  1.424463  4.854334
  S     1.983123  4.561248  4.663128
