16  
    
  C    -4.742995 -2.407914  1.722806
  C    -4.826572  1.136872  1.663804
  C    -5.984303 -2.842813  1.158534
  C    -5.888427  0.376271  1.055390
  N    -3.785375 -2.183676  0.814211
  N    -3.793242  1.375978  0.813644
  N    -5.962454 -3.087327 -0.155000
  N    -5.747934  0.300802 -0.280893
  N    -6.385761 -2.651292  3.708653
  N    -6.771899  0.897245  3.478433
  S    -7.194309 -3.158005  2.334601
  S    -7.337567  0.113654  2.105898
  S    -4.444603 -2.587578 -0.677164
  S    -4.301480  0.867412 -0.675851
  S    -4.799252 -2.157848  3.471074
  S    -5.152727  1.433104  3.334374
