16  
    
  C    -0.148207 -0.473956  2.750133
  C     0.151324  3.404946  2.453836
  C    -1.288174 -0.865440  2.017453
  C    -1.028329  2.835817  1.706019
  N     0.956238 -0.182796  2.026187
  N     1.148781  3.586393  1.614991
  N    -1.078486 -0.980292  0.711316
  N    -0.998428  2.988389  0.385429
  N    -2.128651 -0.674556  4.328288
  N    -1.656750  2.864462  4.260168
  S    -2.694727 -1.298937  2.929717
  S    -2.329953  2.512695  2.764965
  S     0.442625 -0.478490  0.469975
  S     0.602544  3.356104  0.027166
  S    -0.508752 -0.267402  4.418504
  S    -0.044880  3.485573  4.180032
