16  
    
  C     3.133904  1.494896  3.340465
  C     3.129149  4.960834  3.409962
  C     1.905373  1.156006  2.670093
  C     1.946236  4.651416  2.695601
  N     4.164730  1.635047  2.510755
  N     4.177392  5.128036  2.609517
  N     1.926372  0.983704  1.354823
  N     2.044382  4.598023  1.396928
  N     1.279324  1.662660  5.191776
  N     1.189185  5.022938  5.102519
  S     0.526848  1.384144  3.722789
  S     0.479826  4.675717  3.625363
  S     3.465516  1.330278  0.946698
  S     3.615780  4.873963  1.082311
  S     2.946792  1.739595  5.027006
  S     2.839354  5.267786  5.063635
