16  
    
  C    -3.288087 -2.198871  1.897877
  C    -3.771802  1.976166  1.952279
  C    -4.471691 -2.695290  1.269180
  C    -4.661284  1.005150  1.307419
  N    -2.243852 -1.979497  1.104107
  N    -2.720451  2.330899  1.233766
  N    -4.251122 -3.000438  0.019140
  N    -4.379475  0.769737  0.028815
  N    -5.121863 -2.298942  3.711310
  N    -5.624772  1.440625  3.668843
  S    -5.821047 -2.902709  2.290973
  S    -6.012050  0.608316  2.352687
  S    -2.715469 -2.528475 -0.357478
  S    -2.983649  1.620671 -0.285996
  S    -3.618595 -1.619967  3.504109
  S    -4.207720  2.233313  3.604846
