16  
    
  C    -5.738537 -2.953235  1.485288
  C    -6.080877  0.963247  1.384577
  C    -6.881425 -3.531229  0.837762
  C    -7.277984  0.284259  0.888353
  N    -4.674141 -2.930291  0.654657
  N    -5.154027  1.362876  0.511809
  N    -6.762918 -3.583211 -0.494564
  N    -7.197242  0.103980 -0.428711
  N    -7.529402 -3.574706  3.326899
  N    -7.481118  0.172110  3.527386
  S    -8.265956 -3.796655  1.838425
  S    -8.316486 -0.367307  2.166664
  S    -5.193113 -3.304822 -0.853799
  S    -5.790002  0.793631 -0.945045
  S    -6.059282 -2.767130  3.258736
  S    -6.096869  0.972327  3.181567
