16  
    
  C    -1.386658 -1.161251  2.655050
  C    -1.576457  2.658568  2.370157
  C    -2.516568 -1.484018  1.819993
  C    -2.679313  2.191151  1.605334
  N    -0.277654 -0.954413  1.984234
  N    -0.464805  2.743308  1.668587
  N    -2.280565 -1.597537  0.541206
  N    -2.495337  1.931738  0.302451
  N    -3.423652 -1.749998  4.301754
  N    -3.473274  2.484109  4.054251
  S    -4.012063 -1.980152  2.736313
  S    -4.052696  1.864897  2.627087
  S    -0.680900 -1.201017  0.351518
  S    -0.833394  2.230835  0.124509
  S    -1.886886 -1.013996  4.321432
  S    -1.896025  3.008136  4.049024
