16  
    
  C    -3.546302 -2.533624  1.907502
  C    -3.638925  1.838681  1.866602
  C    -4.658852 -3.098070  1.207085
  C    -4.688323  1.025847  1.249909
  N    -2.444921 -2.446044  1.126930
  N    -2.711457  2.215770  0.967826
  N    -4.556057 -3.083322 -0.129519
  N    -4.357747  0.642959  0.004916
  N    -5.449294 -2.573732  3.686081
  N    -5.379141  1.496476  3.664114
  S    -6.049447 -3.332994  2.329320
  S    -5.925464  0.623540  2.312754
  S    -2.974261 -2.704773 -0.436981
  S    -2.994664  1.474480 -0.413618
  S    -3.853219 -2.247204  3.549698
  S    -3.856450  2.235834  3.520782
