16  
    
  C    -0.854148 -0.536250  2.413412
  C    -0.569118  3.180361  2.865985
  C    -2.191958 -0.985744  1.795954
  C    -1.785467  2.900473  2.229738
  N     0.184401 -0.552068  1.597927
  N     0.482703  3.208304  2.022264
  N    -2.117467 -1.085215  0.489985
  N    -1.678988  2.493136  0.954783
  N    -2.775308 -0.683531  4.240148
  N    -2.412553  3.206630  4.742646
  S    -3.569083 -1.192591  2.869736
  S    -3.135324  2.741991  3.269087
  S    -0.447482 -0.956427  0.081650
  S    -0.102107  2.774713  0.558104
  S    -1.107679 -0.470199  4.133265
  S    -0.771296  3.666500  4.546158
