16  
    
  C    -0.213958 -0.372635  2.769218
  C     0.120621  3.557898  2.302779
  C    -1.342347 -0.882107  1.955118
  C    -1.031857  3.005851  1.705590
  N     0.858412 -0.105423  2.028414
  N     1.215199  3.648746  1.517563
  N    -1.075678 -0.965481  0.647113
  N    -0.958788  2.950327  0.370816
  N    -2.128769 -0.649890  4.465399
  N    -1.497788  2.844796  4.221962
  S    -2.753260 -0.966389  2.982199
  S    -2.384439  2.812035  2.809292
  S     0.510349 -0.483370  0.444632
  S     0.587013  3.499333 -0.038566
  S    -0.499320 -0.255094  4.537803
  S     0.100661  3.404958  4.036802
