16  
    
  C    -4.833361 -2.473225  1.895689
  C    -5.211727  1.169630  1.810611
  C    -5.971619 -3.089882  1.261505
  C    -6.396395  0.586767  1.157108
  N    -3.805219 -2.266230  1.059797
  N    -4.193967  1.311339  1.000749
  N    -5.868997 -3.139647 -0.054354
  N    -6.243854  0.196245 -0.084683
  N    -6.708361 -2.776378  3.773653
  N    -7.052852  1.021850  3.641613
  S    -7.396366 -3.261024  2.330757
  S    -7.736302  0.413490  2.177849
  S    -4.333381 -2.682136 -0.453698
  S    -4.675712  0.734436 -0.498931
  S    -5.091120 -2.302722  3.589809
  S    -5.354009  1.358729  3.525349
