16  
    
  C    -0.164703 -0.332685  2.637425
  C     0.130822  3.442408  2.324878
  C    -1.423972 -0.605720  1.969651
  C    -1.150415  3.369898  1.721862
  N     0.876064 -0.331437  1.787685
  N     1.103964  3.566554  1.444239
  N    -1.373047 -0.597301  0.604314
  N    -1.140079  3.190408  0.402555
  N    -1.940659 -0.406950  4.566095
  N    -1.593368  3.409788  4.209778
  S    -2.731725 -0.735375  3.153590
  S    -2.419132  3.021274  2.857106
  S     0.240831 -0.454410  0.280121
  S     0.456596  3.536910 -0.064714
  S    -0.281504 -0.211924  4.426889
  S     0.055355  3.652345  4.081996
