16  
    
  C     1.548036  1.014519  3.210396
  C     1.886853  4.619746  3.316886
  C     0.346426  0.555540  2.505247
  C     0.698598  4.067648  2.725052
  N     2.609224  1.160436  2.435587
  N     2.918251  4.677352  2.465435
  N     0.486631  0.428900  1.203075
  N     0.785606  3.658562  1.485477
  N    -0.310425  0.670365  4.974498
  N     0.131862  4.551935  5.221428
  S    -0.934245  0.130159  3.627890
  S    -0.725598  4.165089  3.815166
  S     2.082048  0.755533  0.901993
  S     2.303705  4.099061  0.994513
  S     1.275550  1.238417  4.952248
  S     1.747604  4.860583  5.045714
