16  
    
  C    -1.605564 -1.082700  2.350546
  C    -1.800209  2.377251  2.294781
  C    -2.883217 -1.447083  1.765258
  C    -2.983817  1.900728  1.663035
  N    -0.639426 -1.135570  1.409782
  N    -0.821785  2.679978  1.457996
  N    -2.924504 -1.545173  0.402608
  N    -2.878199  1.741987  0.359252
  N    -3.260083 -0.920234  4.259146
  N    -3.578631  2.187649  4.144469
  S    -4.142366 -1.277772  2.914802
  S    -4.397768  1.754357  2.743950
  S    -1.355657 -1.295452 -0.049291
  S    -1.335129  2.186699 -0.026048
  S    -1.630704 -0.839034  4.066523
  S    -1.973747  2.591105  4.024571
