16  
    
  C     2.279725  1.061808  3.454007
  C     2.229613  4.810403  3.156307
  C     1.008374  0.683396  2.854517
  C     1.005886  4.314861  2.529707
  N     3.253095  1.253438  2.590721
  N     3.255665  5.005650  2.311397
  N     0.988928  0.630183  1.539722
  N     0.957779  4.421464  1.184956
  N     0.464462  0.838959  5.389791
  N     0.509871  4.279674  5.074837
  S    -0.298763  0.480821  3.929380
  S    -0.293096  4.016752  3.686601
  S     2.567732  1.024152  1.041128
  S     2.490231  4.964916  0.795716
  S     2.031866  1.358041  5.179341
  S     2.088975  4.689226  4.912218
