16  
    
  C     2.042842  0.817854  3.057315
  C     2.180539  4.574318  2.992880
  C     0.757714  0.647016  2.402455
  C     1.043525  3.944392  2.370217
  N     3.069377  0.599750  2.282103
  N     3.341801  4.501906  2.311835
  N     0.819194  0.399724  1.112263
  N     1.244329  3.655567  1.090113
  N     0.281476  0.992903  4.887585
  N     0.217559  4.353838  4.756978
  S    -0.562109  0.613467  3.509660
  S    -0.418603  3.970663  3.265797
  S     2.507058  0.259170  0.737374
  S     2.855919  4.058440  0.760365
  S     1.886364  1.286514  4.758367
  S     1.875471  4.832910  4.744805
