16  
    
  C     2.585831  0.978928  3.102127
  C     2.471834  4.890674  3.495364
  C     1.368495  0.515388  2.442781
  C     1.235437  4.526243  2.765384
  N     3.606193  1.235817  2.303439
  N     3.550595  5.176322  2.758527
  N     1.544318  0.394152  1.144124
  N     1.505586  4.251032  1.486646
  N     0.903068  0.630147  4.995170
  N     0.739347  4.478279  5.380075
  S    -0.005426  0.452773  3.583902
  S    -0.047186  4.038213  3.954924
  S     3.147697  0.934075  0.760537
  S     3.120591  4.654609  1.213780
  S     2.461528  1.179638  4.806152
  S     2.280319  5.130679  5.224535
