16  
    
  C     1.555603  0.756343  2.887409
  C     0.868577  3.983756  2.560578
  C     0.366027  0.223369  2.256793
  C    -0.292092  3.411032  1.825462
  N     2.614021  0.751416  2.049095
  N     1.954151  4.046089  1.802129
  N     0.480482 -0.195007  0.989680
  N    -0.244597  3.415865  0.500248
  N    -0.336080  0.759743  4.759670
  N    -0.905008  3.591821  4.350532
  S    -1.064928  0.272992  3.296808
  S    -1.632194  3.176103  2.938245
  S     2.077525  0.058154  0.576434
  S     1.423460  3.708468  0.235178
  S     1.337731  1.142390  4.586507
  S     0.757624  4.054756  4.276206
