16  
    
  C    -1.103367 -0.640327  2.363536
  C    -0.673929  3.199952  2.754941
  C    -2.256586 -1.223575  1.718699
  C    -1.892359  2.632006  2.138226
  N    -0.035109 -0.593869  1.559638
  N     0.340989  3.285015  1.919661
  N    -2.162372 -1.509280  0.411418
  N    -1.746875  2.365632  0.853428
  N    -2.803094 -0.861747  4.258454
  N    -2.429289  3.082331  4.581730
  S    -3.554517 -1.167850  2.816091
  S    -3.299372  2.795510  3.233278
  S    -0.543024 -1.041318  0.053887
  S    -0.153508  2.643896  0.483801
  S    -1.163710 -0.401548  4.088241
  S    -0.817052  3.431568  4.451242
