16  
    
  C    -4.218776 -2.061896  1.713997
  C    -4.244182  1.654537  1.877837
  C    -5.460841 -2.483386  1.091631
  C    -5.379634  1.026232  1.286826
  N    -3.160497 -2.210572  0.904991
  N    -3.184312  1.659784  1.098035
  N    -5.366564 -2.772489 -0.179942
  N    -5.228301  0.618108  0.037189
  N    -5.994837 -1.948095  3.531027
  N    -5.998079  1.571605  3.779431
  S    -6.748207 -2.586590  2.232899
  S    -6.762266  0.981597  2.447358
  S    -3.795312 -2.666345 -0.555435
  S    -3.660981  0.973589 -0.416300
  S    -4.365879 -1.698612  3.327318
  S    -4.511528  2.184874  3.526456
