16  
    
  C     1.039095  0.199752  3.042380
  C     1.032654  4.177275  2.565780
  C    -0.250308  0.057292  2.358858
  C    -0.121246  3.402235  2.166855
  N     2.068225  0.275264  2.247139
  N     2.088858  4.184965  1.779106
  N    -0.131338 -0.145490  1.033652
  N     0.094254  2.886697  0.971653
  N    -0.747863 -0.137526  4.808977
  N    -0.742507  4.336215  4.487931
  S    -1.583172 -0.074909  3.396515
  S    -1.489809  3.380739  3.292919
  S     1.454039  0.044660  0.723372
  S     1.534167  3.415307  0.396867
  S     0.882261  0.251805  4.797306
  S     0.800379  4.750587  4.183534
