16  
    
  C    -0.008126 -0.537078  2.463565
  C    -0.163293  3.249466  2.607426
  C    -1.213964 -1.119927  1.866580
  C    -1.275646  2.575600  1.955162
  N     0.988290 -0.318007  1.639358
  N     0.743122  3.763345  1.788523
  N    -1.153979 -1.138547  0.563539
  N    -1.033032  2.241044  0.688226
  N    -1.788507 -0.901742  4.382285
  N    -1.923938  2.828489  4.429084
  S    -2.549657 -1.305125  2.989043
  S    -2.606253  2.301188  3.032849
  S     0.363927 -0.582174  0.072992
  S     0.409447  3.018264  0.321053
  S    -0.163319 -0.543121  4.153272
  S    -0.395091  3.484821  4.321545
