16  
    
  C    -0.784417 -0.894666  2.472385
  C    -0.960034  3.051457  2.480018
  C    -1.965643 -1.305409  1.741684
  C    -2.206679  2.937905  1.825421
  N     0.266306 -0.648147  1.705996
  N     0.107486  3.027277  1.659896
  N    -1.897922 -1.284984  0.437659
  N    -2.108790  2.610798  0.527579
  N    -2.644313 -1.121100  4.243997
  N    -2.796716  3.188768  4.325753
  S    -3.298854 -1.576626  2.766116
  S    -3.589612  2.766828  2.888989
  S    -0.292575 -0.798039  0.109625
  S    -0.510244  2.756654  0.148154
  S    -1.095311 -0.527995  4.211371
  S    -1.115600  3.395912  4.164082
