16  
    
  C    -0.969154 -0.514784  2.412547
  C    -1.120717  3.118285  2.373322
  C    -2.195208 -0.969849  1.706586
  C    -2.366191  2.801625  1.778627
  N     0.013890 -0.126231  1.621731
  N    -0.019464  3.034818  1.626382
  N    -1.918649 -1.199605  0.415007
  N    -2.217175  2.437671  0.517811
  N    -2.722038 -1.109517  4.224035
  N    -2.960864  3.171198  4.268123
  S    -3.419533 -1.484533  2.794836
  S    -3.752398  3.046853  2.770756
  S    -0.387752 -0.672743  0.120467
  S    -0.638248  2.688934  0.116371
  S    -1.155351 -0.586040  4.216744
  S    -1.268522  3.306854  4.142814
