16  
    
  C    -5.252870 -2.416826  1.756269
  C    -5.320546  1.280916  1.479761
  C    -6.501067 -2.668013  1.112355
  C    -6.614925  0.932403  0.881847
  N    -4.241127 -2.299174  0.879011
  N    -4.280697  1.184005  0.626646
  N    -6.394371 -2.970434 -0.202790
  N    -6.550019  0.683130 -0.411111
  N    -6.987513 -2.420581  3.631964
  N    -7.053561  1.108746  3.339019
  S    -7.824923 -2.743469  2.248728
  S    -7.967777  0.827133  1.980918
  S    -4.853242 -2.620927 -0.609577
  S    -4.945995  0.762926 -0.845078
  S    -5.435246 -1.922140  3.416386
  S    -5.493893  1.320437  3.160016
