16  
    
  C    -3.456436 -2.186975  1.858991
  C    -3.748732  1.945459  1.938787
  C    -4.538716 -2.891303  1.241132
  C    -4.721592  1.055013  1.311466
  N    -2.375548 -2.012890  1.123780
  N    -2.808822  2.362146  1.112819
  N    -4.230320 -3.267379 -0.002792
  N    -4.352282  0.797814  0.069727
  N    -5.244658 -2.456104  3.685028
  N    -5.534450  1.363663  3.754444
  S    -5.920403 -2.956675  2.275094
  S    -6.005655  0.500751  2.344149
  S    -2.705025 -2.678455 -0.370688
  S    -2.997466  1.682256 -0.341193
  S    -3.698828 -1.804486  3.601899
  S    -4.231793  2.402009  3.558199
