16  
    
  C     0.816694  0.379881  3.054869
  C     0.502685  3.999721  2.916602
  C    -0.431783  0.092897  2.435032
  C    -0.689796  3.366459  2.413060
  N     1.833466  0.511047  2.221784
  N     1.562396  3.891722  2.093247
  N    -0.316492 -0.182392  1.138420
  N    -0.608921  2.996384  1.124793
  N    -0.981101  0.256060  4.869290
  N    -1.169029  3.842662  4.878590
  S    -1.814495  0.154799  3.450291
  S    -1.943240  3.325408  3.574027
  S     1.212609  0.126125  0.718463
  S     0.905427  3.349748  0.649399
  S     0.644027  0.630771  4.723856
  S     0.484105  4.180693  4.690158
