16  
    
  C     3.767784  1.881243  3.732719
  C     3.606765  5.452166  3.589189
  C     2.595572  1.595019  2.969253
  C     2.410690  4.951041  2.910962
  N     4.879970  2.146112  3.038705
  N     4.667863  5.623650  2.780358
  N     2.812432  1.515137  1.660518
  N     2.496303  5.041861  1.591526
  N     1.934920  1.743936  5.428550
  N     1.767110  5.301741  5.442205
  S     1.198504  1.635397  3.964610
  S     1.062080  4.919350  4.041344
  S     4.376994  1.927361  1.400631
  S     4.058855  5.373079  1.179248
  S     3.516778  2.265180  5.409130
  S     3.400875  5.440879  5.333688
