16  
    
  C    -5.349171 -2.450931  1.419704
  C    -5.354676  1.171366  1.303068
  C    -6.560523 -2.942525  0.827090
  C    -6.566665  0.676951  0.656447
  N    -4.411122 -2.232347  0.519259
  N    -4.372202  1.468505  0.475679
  N    -6.563852 -2.950744 -0.512371
  N    -6.404654  0.440387 -0.642446
  N    -7.034295 -2.755774  3.352122
  N    -7.171456  0.804455  3.170492
  S    -7.845635 -3.109514  1.946708
  S    -7.805789  0.073364  1.772665
  S    -5.085359 -2.489198 -0.948442
  S    -4.874520  0.991313 -1.031279
  S    -5.507546 -2.224132  3.122859
  S    -5.540715  1.199540  3.005346
