16  
    
  C     1.043985  0.199459  3.041461
  C     1.018192  4.183105  2.561493
  C    -0.253627  0.052740  2.356414
  C    -0.115940  3.394273  2.178690
  N     2.064065  0.272940  2.236651
  N     2.084006  4.170673  1.773065
  N    -0.136384 -0.143787  1.033165
  N     0.092116  2.886024  0.974742
  N    -0.751623 -0.142583  4.816247
  N    -0.743240  4.336090  4.488656
  S    -1.587945 -0.083419  3.401110
  S    -1.491007  3.384764  3.300444
  S     1.449135  0.045075  0.719348
  S     1.530172  3.412589  0.397790
  S     0.889221  0.249308  4.798012
  S     0.805067  4.752759  4.186700
