16  
    
  C     3.646349  1.896723  3.608100
  C     3.209475  5.277543  3.479411
  C     2.423829  1.461370  3.002756
  C     1.979528  4.825261  2.849479
  N     4.643559  2.066835  2.728907
  N     4.237318  5.523148  2.661094
  N     2.503580  1.324236  1.688962
  N     2.161373  4.585018  1.566376
  N     1.985367  1.343066  5.540407
  N     1.562202  5.054809  5.351276
  S     1.048840  1.227795  4.132049
  S     0.745875  4.451199  3.982516
  S     4.081165  1.727299  1.260607
  S     3.699299  5.183927  1.198956
  S     3.462367  2.155725  5.301269
  S     3.182661  5.365036  5.160706
