16  
    
  C     3.298475  1.505727  3.588725
  C     3.066176  5.171421  3.427264
  C     2.054647  1.042868  3.008956
  C     2.022806  4.372906  2.750134
  N     4.252081  1.564989  2.684235
  N     4.044659  5.486852  2.579927
  N     2.077628  0.816722  1.693680
  N     2.134631  4.342370  1.416833
  N     1.701774  1.437135  5.568066
  N     1.148860  5.042087  5.078704
  S     0.794013  0.973885  4.285852
  S     0.597034  4.149118  3.785615
  S     3.671355  1.179130  1.265253
  S     3.697087  4.986293  1.070099
  S     3.207313  1.970391  5.254527
  S     2.779849  5.401520  5.141504
