16  
    
  C    -2.663773 -1.634531  2.123168
  C    -2.394717  2.219421  2.144499
  C    -3.972499 -1.887112  1.579256
  C    -3.673444  1.903167  1.473067
  N    -1.750821 -1.409269  1.142148
  N    -1.379859  2.167563  1.280314
  N    -4.026225 -2.126463  0.246337
  N    -3.634959  1.858382  0.129830
  N    -4.429035 -1.804562  4.071738
  N    -4.157230  2.106582  4.041926
  S    -5.277020 -2.210504  2.671689
  S    -4.964452  1.938543  2.580554
  S    -2.518703 -1.703846 -0.313176
  S    -2.038749  1.907052 -0.251461
  S    -2.792054 -1.463193  3.825709
  S    -2.482630  2.334903  3.869816
