16  
    
  C     2.240084  0.951390  3.302627
  C     2.169892  4.409614  2.929274
  C     0.933775  0.628100  2.732371
  C     0.877187  4.166475  2.288847
  N     3.235945  1.062572  2.432850
  N     3.207365  4.664272  2.102181
  N     0.948263  0.506420  1.410772
  N     0.961985  4.018459  0.979446
  N     0.393838  1.009353  5.217422
  N     0.349963  4.408582  4.826584
  S    -0.411474  0.507411  3.805117
  S    -0.369514  3.791965  3.414348
  S     2.539189  0.817285  0.884642
  S     2.567962  4.257374  0.583544
  S     2.013233  1.218573  5.037136
  S     1.976681  4.687770  4.738827
