16  
    
  C     0.771276  0.292539  2.892415
  C     0.583297  3.753927  2.728671
  C    -0.425143 -0.174079  2.349601
  C    -0.646082  3.345408  2.146398
  N     1.741112  0.584494  1.981375
  N     1.594345  3.847776  1.841952
  N    -0.412263 -0.506731  1.053828
  N    -0.615926  3.251394  0.814988
  N    -0.940514  0.176265  4.887326
  N    -0.974890  3.368033  4.723865
  S    -1.771807 -0.211137  3.538984
  S    -1.873178  3.197390  3.387128
  S     1.106190  0.051149  0.527262
  S     0.902211  3.747243  0.386182
  S     0.615103  0.549540  4.606277
  S     0.695074  3.540022  4.479561
