16  
    
  C    -5.088274 -2.370222  1.867330
  C    -5.378048  0.996050  1.605744
  C    -6.355759 -2.847340  1.298831
  C    -6.657760  0.870003  0.972138
  N    -4.051895 -2.523222  1.062689
  N    -4.350253  1.098465  0.769315
  N    -6.299594 -3.148777  0.003988
  N    -6.569810  0.668671 -0.316522
  N    -6.878246 -2.072327  3.695402
  N    -7.188107  1.076537  3.495560
  S    -7.698268 -2.759152  2.385020
  S    -8.064166  0.917143  2.048071
  S    -4.688514 -3.004843 -0.452088
  S    -5.037314  0.896264 -0.729331
  S    -5.235449 -2.161450  3.626610
  S    -5.525417  1.314782  3.271598
