16  
    
  C    -4.385157 -2.399186  1.512970
  C    -4.404423  1.526547  1.946438
  C    -5.505301 -3.010494  0.787182
  C    -5.595997  1.006831  1.369419
  N    -3.312046 -2.126120  0.776093
  N    -3.457414  1.779868  1.072708
  N    -5.333242 -2.996567 -0.563361
  N    -5.620984  0.788999  0.066310
  N    -6.263210 -2.935023  3.255606
  N    -5.889060  1.021907  3.882670
  S    -6.935571 -3.255983  1.776362
  S    -6.789429  0.593194  2.534012
  S    -3.801099 -2.330827 -0.791826
  S    -4.053622  1.320421 -0.372896
  S    -4.733917 -2.360713  3.164272
  S    -4.422754  1.696804  3.659442
