16  
    
  C     1.605847  0.892128  3.252754
  C     2.029775  4.462102  3.359770
  C     0.456871  0.333866  2.535927
  C     0.764983  4.090385  2.713989
  N     2.680218  1.163173  2.509844
  N     2.963411  4.746138  2.446162
  N     0.677381  0.195153  1.205356
  N     0.831782  3.801783  1.410864
  N    -0.277489  0.403854  5.014370
  N     0.238442  4.462140  5.147851
  S    -0.931970  0.022896  3.520281
  S    -0.529191  3.910517  3.805140
  S     2.229915  0.761322  0.946900
  S     2.435429  4.194375  0.906672
  S     1.272634  1.193961  4.938577
  S     1.783269  4.915190  4.990408
