16  
    
  C     1.468514  0.805230  3.430762
  C     1.255936  4.578947  3.209124
  C     0.207527  0.351476  2.906928
  C    -0.019122  4.235347  2.730516
  N     2.445718  0.818596  2.529572
  N     2.154379  4.719961  2.268633
  N     0.263475  0.060469  1.636738
  N    -0.032415  3.962498  1.421569
  N    -0.235681  0.932079  5.307414
  N    -0.173781  4.191280  5.275345
  S    -1.146490  0.489889  4.037084
  S    -1.252481  3.935166  3.965144
  S     1.811842  0.372669  1.092821
  S     1.464311  4.388544  0.848908
  S     1.391034  1.250298  5.126644
  S     1.374792  4.660196  4.927839
