16  
    
  C     1.997408  0.979587  3.015506
  C     2.197569  4.416297  3.101472
  C     0.784041  0.457159  2.401482
  C     1.084266  4.074476  2.297639
  N     2.991062  1.164577  2.153535
  N     3.318814  4.300014  2.411419
  N     0.932007  0.135299  1.117859
  N     1.298001  3.769974  1.021795
  N     0.239456  1.064997  4.779843
  N     0.225526  4.479608  4.722760
  S    -0.599145  0.692890  3.445578
  S    -0.377453  3.813778  3.194039
  S     2.466974  0.606363  0.704362
  S     2.968833  4.013640  0.804990
  S     1.850874  1.315336  4.718462
  S     1.904684  4.723062  4.757709
