16  
    
  C    -1.894364 -1.198762  2.153544
  C    -2.459711  2.494408  1.984489
  C    -3.182028 -1.529146  1.473932
  C    -3.676445  1.990718  1.412294
  N    -0.901194 -0.909054  1.356417
  N    -1.461139  2.499972  1.123628
  N    -2.999692 -1.755203  0.196301
  N    -3.693215  1.886774  0.068930
  N    -3.781629 -1.222265  3.984526
  N    -4.108464  2.429262  3.982728
  S    -4.455732 -1.904912  2.617765
  S    -4.960550  2.010913  2.605161
  S    -1.458480 -1.245991 -0.192039
  S    -2.107500  2.184709 -0.401042
  S    -2.151316 -0.836858  3.804103
  S    -2.516465  2.942708  3.662536
