16  
    
  C    -0.495777 -0.489854  2.682084
  C    -0.325974  3.311754  2.634847
  C    -1.739017 -0.694011  1.945673
  C    -1.440301  2.612075  2.058498
  N     0.532586 -0.360379  1.809089
  N     0.741413  3.448379  1.849440
  N    -1.589980 -0.844401  0.608276
  N    -1.369080  2.451158  0.753737
  N    -2.367856 -0.591823  4.463137
  N    -2.173241  3.158894  4.430534
  S    -3.002811 -1.001120  2.992626
  S    -2.775415  2.372476  3.137493
  S    -0.042985 -0.540810  0.293138
  S     0.212693  2.765114  0.375862
  S    -0.756237 -0.052883  4.370244
  S    -0.664925  3.758732  4.330052
