16  
    
  C    -2.735609 -1.549059  2.099652
  C    -2.431359  2.272407  2.133603
  C    -3.964625 -1.999061  1.561971
  C    -3.718053  2.099573  1.521679
  N    -1.740178 -1.406026  1.232605
  N    -1.383768  2.366017  1.270242
  N    -3.980254 -2.036557  0.223316
  N    -3.617921  1.848264  0.213265
  N    -4.408085 -1.605626  4.023963
  N    -4.174180  1.949544  4.032791
  S    -5.218201 -2.138498  2.670148
  S    -5.006470  1.842087  2.645292
  S    -2.475955 -1.655789 -0.231558
  S    -1.993174  2.010654 -0.216301
  S    -2.784058 -1.432373  3.866170
  S    -2.596269  2.341542  3.911501
