16  
    
  C    -2.714886 -1.654343  1.944444
  C    -3.166829  1.936593  1.758910
  C    -3.999745 -1.909638  1.326816
  C    -4.250464  1.246109  1.038219
  N    -1.708211 -1.509669  1.094606
  N    -2.042763  2.221047  1.069029
  N    -3.907660 -2.117486  0.021142
  N    -3.958236  1.141408 -0.273334
  N    -4.399282 -1.673479  3.891738
  N    -5.153232  1.602698  3.522944
  S    -5.280065 -1.902366  2.472079
  S    -5.685701  1.166047  2.030512
  S    -2.307159 -1.936301 -0.369584
  S    -2.476762  1.797250 -0.521358
  S    -2.784652 -1.389601  3.707265
  S    -3.564689  2.160339  3.466520
