16  
    
  C     2.774970  1.394194  3.661265
  C     2.946068  5.240956  3.647687
  C     1.553063  1.040677  3.044826
  C     1.687701  5.119830  2.898991
  N     3.787432  1.513065  2.775887
  N     4.002448  5.330883  2.860971
  N     1.618768  0.900823  1.725631
  N     1.846863  4.769797  1.627851
  N     0.988333  0.832006  5.546539
  N     1.133649  4.745212  5.343739
  S     0.235836  0.731919  4.085578
  S     0.362493  4.889281  3.914050
  S     3.224011  1.211772  1.313064
  S     3.445587  5.111363  1.330808
  S     2.522858  1.432807  5.445151
  S     2.716659  5.293969  5.362988
