16  
    
  C    -4.919220 -2.578867  1.950066
  C    -5.242491  1.017443  1.785141
  C    -6.134445 -2.906741  1.215345
  C    -6.446257  0.462598  1.145860
  N    -3.875891 -2.408401  1.161666
  N    -4.189618  1.206445  0.979012
  N    -5.973970 -3.243048 -0.043304
  N    -6.377543  0.358674 -0.171926
  N    -6.729430 -2.514106  3.658931
  N    -7.093803  1.052758  3.608514
  S    -7.439259 -3.247333  2.300112
  S    -7.890618  0.552388  2.243477
  S    -4.355606 -2.824755 -0.357525
  S    -4.802795  0.815483 -0.559983
  S    -5.075581 -2.339745  3.654426
  S    -5.502652  1.330434  3.463659
