16  
    
  C     2.286932  0.793151  3.517091
  C     1.873706  5.152773  3.103288
  C     0.992801  0.569490  2.926211
  C     0.825162  4.484334  2.384911
  N     3.331436  0.842166  2.684288
  N     3.072962  5.214535  2.469641
  N     1.037436  0.485339  1.576815
  N     1.115653  4.424227  1.070947
  N     0.597897  0.995530  5.561235
  N     0.037340  4.778889  4.773191
  S    -0.253983  0.609502  4.127290
  S    -0.526303  4.137586  3.415187
  S     2.625395  0.660109  1.161859
  S     2.687360  4.892011  0.889092
  S     2.261200  1.149700  5.219139
  S     1.543962  5.275831  4.835492
