16  
    
  C    -1.893990 -1.201430  2.154032
  C    -2.461803  2.484441  1.981850
  C    -3.184511 -1.527911  1.473633
  C    -3.673531  1.990620  1.412954
  N    -0.899813 -0.910799  1.357978
  N    -1.453940  2.502629  1.123717
  N    -2.998640 -1.758501  0.201052
  N    -3.690581  1.886735  0.071059
  N    -3.784825 -1.210482  3.987298
  N    -4.103341  2.427535  3.983115
  S    -4.457948 -1.896182  2.618597
  S    -4.958144  2.012179  2.603627
  S    -1.457251 -1.242528 -0.191268
  S    -2.105382  2.183657 -0.403462
  S    -2.155867 -0.836191  3.811583
  S    -2.510907  2.942177  3.660251
