16  
    
  C    -0.242925 -0.611870  2.629198
  C    -0.392914  3.162069  2.675628
  C    -1.546415 -1.098524  2.104412
  C    -1.592841  2.768395  2.039181
  N     0.792799 -0.768927  1.790006
  N     0.659385  3.371315  1.863455
  N    -1.483839 -1.335383  0.810980
  N    -1.384131  2.422140  0.769804
  N    -1.937033 -0.635084  4.620808
  N    -2.057420  2.902341  4.592736
  S    -2.783558 -1.259694  3.374626
  S    -2.863789  2.436564  3.183118
  S     0.112356 -1.245299  0.382725
  S     0.157791  2.961144  0.358260
  S    -0.316224 -0.310867  4.306391
  S    -0.554554  3.552347  4.367108
