16  
    
  C    -3.098543 -1.504317  2.257559
  C    -3.309822  1.902460  2.009867
  C    -4.303975 -1.949819  1.630109
  C    -4.600706  1.532409  1.430020
  N    -2.008057 -1.390469  1.468397
  N    -2.366075  2.233996  1.134897
  N    -4.125076 -2.051003  0.318707
  N    -4.471738  1.329789  0.119106
  N    -4.869467 -1.592963  4.131178
  N    -4.950670  1.494289  3.960568
  S    -5.658042 -1.762500  2.702839
  S    -5.790354  1.075374  2.572871
  S    -2.558088 -1.634748 -0.048192
  S    -2.958711  1.789511 -0.326530
  S    -3.231039 -1.452609  3.976680
  S    -3.301141  1.866327  3.744592
