16  
    
  C    -5.756454 -2.844381  1.208108
  C    -5.786380  0.825452  1.580574
  C    -6.886687 -3.513509  0.657437
  C    -6.981810  0.324620  0.897555
  N    -4.901127 -2.463324  0.251432
  N    -4.771786  1.194813  0.771133
  N    -6.888870 -3.631517 -0.649253
  N    -6.824261  0.155182 -0.432010
  N    -7.432917 -3.117483  3.170627
  N    -7.663673  0.695137  3.423782
  S    -8.108692 -3.792482  1.829771
  S    -8.269390 -0.017009  2.007524
  S    -5.486963 -2.958211 -1.165498
  S    -5.289214  0.718263 -0.755771
  S    -5.827029 -2.769706  2.930839
  S    -6.006560  1.019059  3.323921
