16  
    
  C    -0.161672 -0.179894  2.545898
  C    -0.024244  3.804014  2.387088
  C    -1.438364 -0.568848  2.016313
  C    -1.206953  3.131036  1.828513
  N     0.736521 -0.018787  1.619450
  N     1.026540  3.727286  1.539639
  N    -1.461567 -0.751686  0.706147
  N    -1.134907  2.853724  0.489509
  N    -1.729614 -0.319706  4.602618
  N    -1.738055  3.492666  4.309918
  S    -2.625042 -0.695039  3.277596
  S    -2.517296  3.028593  2.928362
  S     0.095434 -0.378951  0.104620
  S     0.373569  3.266187  0.052565
  S    -0.107555 -0.104081  4.300575
  S    -0.105596  3.984965  4.148116
