16  
    
  C    -1.985083 -1.077052  2.068434
  C    -2.498466  2.618898  2.060204
  C    -3.138594 -1.611344  1.432653
  C    -3.785052  2.184517  1.465089
  N    -1.001109 -0.822357  1.184764
  N    -1.511615  2.673137  1.176919
  N    -3.092073 -1.803881  0.093322
  N    -3.722966  1.866718  0.193137
  N    -3.587442 -1.684632  3.977195
  N    -4.265168  2.482540  3.972757
  S    -4.366720 -2.099730  2.556403
  S    -5.071815  1.921188  2.619565
  S    -1.531144 -1.336139 -0.328247
  S    -2.180357  2.136615 -0.313473
  S    -2.143797 -0.845549  3.817740
  S    -2.653171  2.896430  3.711187
