16  
    
  C    -1.416652 -1.053622  2.419608
  C    -1.560356  2.812132  2.106140
  C    -2.525695 -1.488535  1.645188
  C    -2.529155  1.912332  1.531881
  N    -0.332778 -0.603407  1.765610
  N    -0.444032  3.064036  1.370786
  N    -2.221289 -1.648627  0.346454
  N    -2.262096  1.615325  0.248517
  N    -3.410304 -1.406562  4.039109
  N    -3.405335  2.469554  3.883022
  S    -3.968746 -1.830311  2.560845
  S    -3.928489  1.667294  2.486591
  S    -0.655697 -1.050851  0.182074
  S    -0.816106  2.389406 -0.109965
  S    -1.795699 -1.017242  4.145409
  S    -1.814067  3.016212  3.883697
