16  
    
  C    -0.127234  0.090110  2.511234
  C     0.006876  3.599318  2.451590
  C    -1.397399 -0.484580  2.070381
  C    -1.247212  3.088606  1.893946
  N     0.817457  0.227652  1.592468
  N     0.925368  3.958976  1.549464
  N    -1.384793 -0.776728  0.785026
  N    -1.100772  2.711615  0.599850
  N    -1.654091 -0.335892  4.583858
  N    -1.707407  3.512098  4.367906
  S    -2.638564 -0.746599  3.271736
  S    -2.534055  2.936987  2.999159
  S     0.099181 -0.391593  0.197823
  S     0.448506  3.171412  0.157371
  S    -0.061211 -0.039197  4.228423
  S    -0.191041  4.029858  4.133729
