16  
    
  C     2.018823  1.167628  3.040903
  C     2.183080  4.345044  2.982381
  C     0.797540  0.707665  2.447890
  C     1.033974  3.883390  2.319412
  N     3.073874  1.247264  2.218689
  N     3.269493  4.557094  2.224389
  N     0.941230  0.465369  1.150344
  N     1.285718  3.644411  1.029429
  N     0.258038  0.950932  4.923091
  N     0.253358  4.277459  4.816271
  S    -0.538429  0.488199  3.645636
  S    -0.383118  3.897712  3.275965
  S     2.483356  0.770915  0.756693
  S     2.880072  3.997161  0.711460
  S     1.846898  1.392498  4.783055
  S     1.951050  4.560263  4.747355
