16  
    
  C    -0.161328 -0.129803  2.696482
  C     0.197761  3.471998  2.303886
  C    -1.356856 -0.618598  2.048344
  C    -1.107591  3.160969  1.683017
  N     0.965704 -0.159549  1.948800
  N     1.132715  3.777276  1.430079
  N    -1.212294 -0.762954  0.730455
  N    -1.080880  3.213532  0.378461
  N    -2.048110 -0.548032  4.474386
  N    -1.512893  3.125328  4.206776
  S    -2.791655 -0.837205  3.019291
  S    -2.352353  2.959320  2.828684
  S     0.371430 -0.549516  0.465763
  S     0.534698  3.476254 -0.081157
  S    -0.397541 -0.307730  4.392003
  S     0.110467  3.430628  4.056765
