16  
    
  C     3.326455  1.470621  3.357817
  C     3.112775  5.060060  3.449322
  C     2.008917  1.364724  2.779696
  C     1.859636  4.533612  2.893091
  N     4.324681  1.448614  2.493386
  N     4.140947  5.066969  2.614904
  N     1.969438  1.201994  1.444258
  N     1.953739  4.369812  1.561260
  N     1.677966  1.786471  5.320703
  N     1.456033  5.002171  5.431592
  S     0.751578  1.649466  3.978481
  S     0.548775  4.665617  4.093898
  S     3.550967  1.327325  1.016705
  S     3.551427  4.739669  1.145029
  S     3.281567  1.770877  5.065496
  S     3.020662  5.344594  5.136637
