16  
    
  C    -4.078743 -2.279624  1.761011
  C    -4.059105  1.417896  1.684605
  C    -5.382355 -2.336773  1.200795
  C    -5.366502  1.269260  1.006550
  N    -3.081453 -2.239135  0.856918
  N    -2.958321  1.303755  0.916795
  N    -5.433049 -2.410683 -0.114379
  N    -5.209621  1.128538 -0.297665
  N    -5.726001 -1.827252  3.712220
  N    -5.899018  1.584801  3.577631
  S    -6.579464 -2.284867  2.383220
  S    -6.720982  1.322368  2.112522
  S    -3.839054 -2.263311 -0.615073
  S    -3.543305  1.121455 -0.692809
  S    -4.071364 -1.829026  3.443100
  S    -4.248550  1.676888  3.370948
