16  
    
  C    -4.319150 -1.750919  1.970001
  C    -4.136445  1.610253  1.899466
  C    -5.475046 -2.293645  1.328421
  C    -5.403073  1.086492  1.343862
  N    -3.293118 -1.714521  1.145573
  N    -3.170019  1.596159  1.023830
  N    -5.366980 -2.686171  0.087943
  N    -5.420158  0.787786  0.062918
  N    -5.950493 -2.157021  3.830394
  N    -5.822273  1.549548  3.824997
  S    -6.876129 -2.351213  2.425601
  S    -6.659043  0.961710  2.555157
  S    -3.759386 -2.336241 -0.320153
  S    -3.787451  1.056432 -0.442072
  S    -4.408328 -1.559444  3.685900
  S    -4.211894  1.841159  3.610852
