16  
    
  C     2.749899  1.120487  3.549361
  C     2.950035  4.832923  3.678728
  C     1.569311  0.701687  2.819364
  C     1.643176  4.945975  3.076186
  N     3.728711  1.556133  2.747121
  N     3.946014  4.888899  2.799052
  N     1.729271  0.778867  1.503546
  N     1.635861  4.874639  1.750351
  N     0.752581  0.839567  5.219469
  N     1.282530  5.502394  5.474896
  S     0.098568  0.423708  3.721822
  S     0.318841  5.249963  4.168455
  S     3.238011  1.366867  1.225336
  S     3.191886  4.833870  1.304915
  S     2.419335  1.054939  5.271954
  S     2.916825  5.340085  5.354978
