16  
    
  C    -2.184941 -0.928860  2.293820
  C    -2.068252  2.459518  1.987745
  C    -3.409912 -1.172117  1.600306
  C    -3.312165  1.947764  1.401904
  N    -1.127306 -0.779546  1.499016
  N    -1.064706  2.510787  1.129683
  N    -3.236366 -1.585592  0.329556
  N    -3.274921  1.765013  0.087381
  N    -3.889260 -1.213290  4.191141
  N    -3.824262  2.358933  3.893561
  S    -4.757186 -1.242738  2.747819
  S    -4.666208  1.911410  2.516147
  S    -1.589591 -1.327880 -0.000482
  S    -1.730012  2.077667 -0.369519
  S    -2.309809 -0.692132  4.023120
  S    -2.189584  2.537459  3.660418
