16  
    
  C     1.337611  0.732010  3.174368
  C     1.048543  4.401455  2.919132
  C     0.054512  0.345329  2.640429
  C    -0.050717  3.873168  2.152555
  N     2.388658  0.772151  2.324840
  N     2.090914  4.754352  2.222954
  N     0.112067  0.079082  1.326821
  N     0.178915  3.765964  0.859801
  N    -0.314074  0.724034  5.201246
  N    -0.739357  3.875217  4.640614
  S    -1.222050  0.269679  3.851225
  S    -1.436781  3.557947  3.156348
  S     1.704960  0.358031  0.851536
  S     1.794715  4.298130  0.615430
  S     1.285299  1.188162  4.834636
  S     0.798496  4.344761  4.687809
