16  
    
  C     2.894680  1.446548  3.404957
  C     2.902153  5.112565  3.179704
  C     1.710974  0.927078  2.772570
  C     1.711222  4.418782  2.649250
  N     3.870202  1.757063  2.556893
  N     3.889727  5.301634  2.344526
  N     1.863014  0.790534  1.458511
  N     1.806793  4.243999  1.344587
  N     1.173771  1.345568  5.351811
  N     1.248187  5.017341  5.094959
  S     0.408797  0.751841  3.930504
  S     0.454346  4.180470  3.797534
  S     3.414932  1.455855  1.069790
  S     3.321679  4.847588  0.887776
  S     2.803393  1.654508  5.173506
  S     2.842522  5.470333  4.852797
