16  
    
  C    -5.746008 -2.797437  1.205987
  C    -5.722906  0.927595  1.522108
  C    -7.027251 -3.145528  0.629545
  C    -6.918222  0.471558  0.878612
  N    -4.840710 -2.551134  0.276323
  N    -4.609934  1.013558  0.794971
  N    -6.961146 -3.351916 -0.695486
  N    -6.711424  0.265380 -0.400763
  N    -7.356666 -3.278232  3.124028
  N    -7.541100  0.607439  3.356163
  S    -8.252699 -3.649794  1.763701
  S    -8.263061  0.155707  1.904912
  S    -5.463342 -2.882384 -1.207073
  S    -5.136806  0.604555 -0.705591
  S    -5.864462 -2.530710  2.939548
  S    -5.958502  1.039713  3.265121
