16  
    
  C    -0.175451 -0.664559  2.651749
  C    -0.350660  3.347756  2.638378
  C    -1.458238 -1.098231  2.061477
  C    -1.473355  2.667674  2.088392
  N     0.790981 -0.652987  1.780525
  N     0.726966  3.376484  1.810032
  N    -1.390541 -1.434818  0.812198
  N    -1.456231  2.454559  0.772576
  N    -1.817727 -0.656353  4.585346
  N    -2.047310  2.850364  4.603511
  S    -2.646397 -1.219584  3.247797
  S    -2.851649  2.506155  3.200314
  S     0.194619 -1.239027  0.331548
  S     0.053146  2.933460  0.304766
  S    -0.244044 -0.304603  4.348561
  S    -0.469590  3.418242  4.359572
