16  
    
  C    -4.241976 -2.156886  1.622652
  C    -4.219856  1.648657  1.874925
  C    -5.469879 -2.585470  1.051519
  C    -5.463161  1.153071  1.282800
  N    -3.160392 -2.245488  0.848874
  N    -3.130961  1.691304  1.072149
  N    -5.408022 -2.833326 -0.273889
  N    -5.204624  0.657596  0.047815
  N    -5.974654 -1.976903  3.536254
  N    -6.038208  1.485407  3.762433
  S    -6.749447 -2.651380  2.242884
  S    -6.776481  0.999666  2.395533
  S    -3.756425 -2.737870 -0.621350
  S    -3.645644  0.963300 -0.306036
  S    -4.349832 -1.772911  3.363326
  S    -4.556728  2.172617  3.497937
