16  
    
  C    -0.129752 -0.165985  2.494689
  C    -0.404995  3.443704  2.524741
  C    -1.249480 -0.894057  1.813738
  C    -1.623965  2.989370  1.967889
  N     0.941022 -0.015487  1.740912
  N     0.567300  3.467329  1.619549
  N    -1.048167 -1.092646  0.543924
  N    -1.639654  2.767236  0.637452
  N    -1.969521 -0.648842  4.266614
  N    -1.974344  3.157508  4.555869
  S    -2.671998 -1.169302  2.832076
  S    -2.915725  2.998509  3.153439
  S     0.530490 -0.577705  0.183035
  S    -0.084657  3.146927  0.126531
  S    -0.410822 -0.017515  4.183354
  S    -0.364095  3.390596  4.263606
