16  
    
  C    -1.465508 -0.920286  2.367043
  C    -1.514825  2.775847  2.061823
  C    -2.504850 -1.491404  1.611653
  C    -2.580053  2.068541  1.428471
  N    -0.306820 -0.693655  1.694520
  N    -0.513738  3.177232  1.267816
  N    -2.273616 -1.534428  0.283276
  N    -2.270133  1.741036  0.179163
  N    -3.313698 -1.486266  4.019206
  N    -3.369738  2.412074  3.847497
  S    -3.937999 -1.710642  2.460213
  S    -3.898750  1.637975  2.496454
  S    -0.681881 -1.037533  0.106014
  S    -0.823406  2.424082 -0.181786
  S    -1.744041 -0.923413  4.107838
  S    -1.873266  3.081481  3.742912
