16  
    
  C     2.402755  1.007269  3.341728
  C     2.340036  4.722077  3.391420
  C     1.224448  0.690286  2.573817
  C     1.196888  4.252946  2.680777
  N     3.470761  1.359353  2.627450
  N     3.327997  5.135516  2.650504
  N     1.367591  0.891097  1.243352
  N     1.438050  4.135693  1.391648
  N     0.574113  0.531591  5.122056
  N     0.660135  4.268700  5.133730
  S    -0.100817  0.411586  3.609814
  S    -0.095185  3.950803  3.711285
  S     2.908140  1.376813  1.066287
  S     2.945023  4.738605  1.098251
  S     2.214501  1.046535  5.056086
  S     2.180177  4.770687  5.100281
