16  
    
  C    -3.906313 -2.108457  1.711133
  C    -3.583283  2.031473  1.630340
  C    -5.130277 -2.559595  1.040120
  C    -4.796484  1.505978  1.094992
  N    -2.947938 -1.843786  0.839773
  N    -2.561532  2.306349  0.849314
  N    -5.100042 -2.550269 -0.272977
  N    -4.717181  1.344239 -0.200579
  N    -5.603822 -2.570060  3.597995
  N    -5.128261  1.404013  3.553091
  S    -6.423624 -2.695600  2.160354
  S    -5.996475  0.997524  2.194414
  S    -3.547218 -2.051369 -0.690141
  S    -3.177816  1.790039 -0.663928
  S    -3.975479 -2.278069  3.439095
  S    -3.650302  2.158223  3.401416
