16  
    
  C    -1.492633 -1.073245  2.248876
  C    -1.842269  2.583923  2.092366
  C    -2.807987 -1.296068  1.647345
  C    -3.075745  2.023818  1.518835
  N    -0.512404 -0.976990  1.379727
  N    -0.800287  2.592293  1.235174
  N    -2.769949 -1.604710  0.371962
  N    -2.948951  1.773358  0.203459
  N    -3.220004 -0.940248  4.236323
  N    -3.464849  2.134129  4.040499
  S    -4.137032 -1.223377  2.862971
  S    -4.332961  1.861339  2.666233
  S    -1.175389 -1.430027 -0.081254
  S    -1.373806  2.156907 -0.219143
  S    -1.558692 -0.948366  3.952533
  S    -1.891643  2.574112  3.834513
