16  
    
  C     3.320011  1.653691  3.270531
  C     3.120758  5.208508  3.405131
  C     1.970644  1.556072  2.711551
  C     1.909646  4.712449  2.848185
  N     4.349742  1.429137  2.449870
  N     4.134861  5.158382  2.540084
  N     1.994349  1.301813  1.404835
  N     1.886114  4.610562  1.510603
  N     1.604981  1.598755  5.209124
  N     1.381584  5.026452  5.270016
  S     0.667752  1.597187  3.844310
  S     0.597391  4.543302  3.894646
  S     3.556535  1.145211  0.968686
  S     3.484619  4.666208  1.127288
  S     3.203201  2.002035  5.031350
  S     3.008633  5.222072  5.176422
