16  
    
  C    -4.885017 -2.469203  1.891204
  C    -5.225423  1.047776  1.803880
  C    -6.032488 -3.057986  1.272981
  C    -6.431258  0.612063  1.197558
  N    -3.812024 -2.323029  1.113959
  N    -4.211061  1.278740  0.948394
  N    -5.869118 -3.150697 -0.042118
  N    -6.215393  0.236388 -0.059181
  N    -6.715923 -2.663321  3.693942
  N    -7.066311  1.031176  3.577337
  S    -7.429134 -3.277894  2.324045
  S    -7.816357  0.452691  2.204386
  S    -4.340975 -2.726045 -0.419920
  S    -4.729103  0.769086 -0.513551
  S    -5.068022 -2.327057  3.613414
  S    -5.392274  1.351093  3.509562
