16  
    
  C    -2.240467 -1.048855  2.023524
  C    -2.630891  2.448609  2.306624
  C    -3.255526 -1.905430  1.474581
  C    -3.829227  1.866034  1.694233
  N    -1.276764 -0.666082  1.211638
  N    -1.753433  2.913609  1.429273
  N    -3.178208 -2.014202  0.178947
  N    -3.709734  1.665409  0.381296
  N    -3.945655 -1.623478  3.951911
  N    -4.388132  2.236113  4.137169
  S    -4.492694 -2.347272  2.615076
  S    -5.113934  1.644219  2.787264
  S    -1.822314 -1.149151 -0.321290
  S    -2.293255  2.375919 -0.097701
  S    -2.408277 -1.015106  3.840234
  S    -2.853338  2.890007  3.985710
