16  
    
  C    -5.685913 -2.799659  1.520627
  C    -5.534837  0.893069  1.428120
  C    -6.884318 -3.131141  0.795872
  C    -6.786322  0.413203  0.768590
  N    -4.705942 -2.394445  0.712695
  N    -4.473082  1.077542  0.652077
  N    -6.682340 -3.308854 -0.519950
  N    -6.674878  0.250221 -0.523535
  N    -7.610640 -2.784465  3.221492
  N    -7.367570  0.884604  3.245092
  S    -8.281246 -3.239380  1.805533
  S    -8.085389  0.181164  1.932083
  S    -5.139709 -2.787018 -0.811589
  S    -5.039261  0.609082 -0.885410
  S    -6.002931 -2.650030  3.221483
  S    -5.670472  1.014502  3.224408
