16  
    
  C     1.363516  0.713347  3.147298
  C     1.022563  4.466379  2.917131
  C     0.062812  0.330037  2.629664
  C    -0.055726  3.815801  2.165908
  N     2.363659  0.744642  2.289755
  N     2.089836  4.700462  2.170810
  N     0.135308  0.088253  1.321801
  N     0.213878  3.762784  0.869795
  N    -0.349598  0.711611  5.196832
  N    -0.786371  3.845204  4.610875
  S    -1.238023  0.253942  3.833319
  S    -1.455759  3.529366  3.120039
  S     1.721109  0.387431  0.819420
  S     1.796287  4.289998  0.594857
  S     1.285646  1.177242  4.831653
  S     0.794976  4.339877  4.659606
