16  
    
  C     2.649978  1.091574  3.186619
  C     2.559729  4.993584  3.561524
  C     1.400706  0.736967  2.527463
  C     1.429408  4.266561  3.088713
  N     3.708424  1.158788  2.396010
  N     3.496828  5.243144  2.637231
  N     1.572647  0.539667  1.219300
  N     1.558837  3.955744  1.792987
  N     0.754781  1.044211  4.890213
  N     0.873709  4.715629  5.546764
  S     0.055258  0.346086  3.565372
  S     0.057236  4.246705  4.099173
  S     3.145568  0.772700  0.862588
  S     2.909515  4.676823  1.225137
  S     2.366170  1.326560  4.928367
  S     2.494561  5.306328  5.294094
