16  
    
  C    -1.565847 -1.162004  2.697420
  C    -1.686140  2.441468  2.447395
  C    -2.735868 -1.593905  1.916034
  C    -2.899109  2.137407  1.731982
  N    -0.503430 -0.848620  1.941116
  N    -0.676691  2.750932  1.619006
  N    -2.531610 -1.724955  0.599331
  N    -2.799260  1.964977  0.402219
  N    -3.506645 -1.520183  4.451756
  N    -3.552014  2.329770  4.202141
  S    -4.123881 -1.774551  2.898633
  S    -4.361247  2.193563  2.753042
  S    -0.966427 -1.172164  0.340218
  S    -1.189913  2.361630  0.088158
  S    -1.871549 -1.162477  4.453650
  S    -1.943209  2.718023  4.100324
