16  
    
  C    -3.996582 -2.157026  1.759955
  C    -4.030799  1.396405  1.666709
  C    -5.306414 -2.442564  1.195477
  C    -5.297390  1.371465  1.033599
  N    -3.037885 -2.192619  0.852038
  N    -2.992237  1.399765  0.850866
  N    -5.361585 -2.384452 -0.147107
  N    -5.209010  1.095905 -0.268603
  N    -5.715051 -1.785231  3.647507
  N    -5.805670  1.600331  3.517038
  S    -6.614937 -2.278471  2.329404
  S    -6.704338  1.321217  2.103009
  S    -3.769578 -2.242783 -0.615141
  S    -3.543155  1.129053 -0.641603
  S    -4.093617 -1.796745  3.403096
  S    -4.162346  1.677045  3.382682
