16  
    
  C     1.961274  0.628689  3.171144
  C     1.821555  4.309363  3.109442
  C     0.631929  0.410817  2.621101
  C     0.530760  3.956581  2.503355
  N     2.964958  0.586654  2.285457
  N     2.867040  4.197781  2.315646
  N     0.648927  0.257806  1.283052
  N     0.636940  3.858274  1.195065
  N     0.390202  0.656316  5.212227
  N     0.209809  4.301410  5.051821
  S    -0.571192  0.209639  3.902696
  S    -0.675746  4.020094  3.688506
  S     2.214134  0.298962  0.830743
  S     2.260698  4.019585  0.778347
  S     1.990959  0.772359  4.883911
  S     1.851535  4.410044  4.846672
