16  
    
  C    -0.136687  0.008646  2.571364
  C    -0.072425  3.705329  2.488080
  C    -1.380341 -0.437603  2.003484
  C    -1.230700  2.973238  1.932059
  N     0.796752  0.304189  1.641831
  N     0.968921  3.784905  1.691579
  N    -1.286791 -0.798913  0.691107
  N    -0.970426  2.573968  0.709439
  N    -1.591696 -0.415477  4.610375
  N    -1.759272  3.484644  4.434836
  S    -2.514372 -0.785047  3.270852
  S    -2.508169  2.759361  3.070582
  S     0.214980 -0.295774  0.245200
  S     0.523713  3.203889  0.223215
  S    -0.070339  0.188835  4.336909
  S    -0.216406  4.067056  4.161215
