16  
    
  C    -0.206905 -0.387583  2.776596
  C     0.161848  3.499688  2.317570
  C    -1.362899 -0.670839  1.992295
  C    -1.110064  3.106146  1.620562
  N     0.843581 -0.070876  2.047787
  N     1.167325  3.729977  1.507899
  N    -1.125296 -0.955033  0.709967
  N    -0.966517  3.005673  0.305658
  N    -2.067965 -0.630293  4.476210
  N    -1.463373  2.921802  4.268665
  S    -2.760454 -0.906455  2.970744
  S    -2.380322  2.876775  2.816289
  S     0.486618 -0.514110  0.443299
  S     0.570509  3.495401 -0.056208
  S    -0.469604 -0.272350  4.483161
  S     0.128820  3.401897  4.048046
