16  
    
  C    -4.942164 -2.538063  1.935690
  C    -5.333819  0.952655  1.751096
  C    -6.127404 -3.018104  1.273516
  C    -6.557437  0.533291  1.126173
  N    -3.870097 -2.499448  1.136457
  N    -4.283521  1.133102  0.963018
  N    -5.969305 -3.191343 -0.043246
  N    -6.461579  0.432122 -0.210317
  N    -6.816704 -2.537862  3.733343
  N    -7.192293  1.038531  3.663943
  S    -7.455226 -3.140439  2.326168
  S    -7.870387  0.602834  2.200463
  S    -4.388442 -2.917149 -0.361576
  S    -4.829661  0.837496 -0.589257
  S    -5.129557 -2.319910  3.652748
  S    -5.511613  1.339636  3.452463
