16  
    
  C    -5.305698 -2.470208  1.484733
  C    -5.368408  1.106155  1.367979
  C    -6.575859 -2.884761  0.882244
  C    -6.494425  0.453671  0.699895
  N    -4.400763 -2.049338  0.619888
  N    -4.413263  1.362938  0.508697
  N    -6.533812 -2.967002 -0.456975
  N    -6.384992  0.427948 -0.629262
  N    -7.140344 -2.577880  3.369763
  N    -7.120821  0.905354  3.140959
  S    -7.953975 -3.001534  1.980661
  S    -7.802425  0.211824  1.811637
  S    -5.024173 -2.369287 -0.943509
  S    -4.884499  0.968712 -1.011467
  S    -5.485051 -2.151084  3.204763
  S    -5.495282  1.284959  3.101778
