16  
    
  C    -4.683170 -2.438595  1.553643
  C    -4.708146  1.012773  1.430067
  C    -5.968921 -2.917267  1.060379
  C    -5.944323  0.725485  0.733269
  N    -3.713112 -2.483723  0.662801
  N    -3.638231  1.106454  0.626309
  N    -5.995519 -3.188845 -0.240729
  N    -5.765978  0.658005 -0.604845
  N    -6.361235 -2.624548  3.571143
  N    -6.628315  0.893359  3.269026
  S    -7.274997 -3.026207  2.211604
  S    -7.315268  0.416908  1.834614
  S    -4.428003 -2.949842 -0.778192
  S    -4.213871  0.925744 -0.924211
  S    -4.694787 -2.403980  3.272639
  S    -4.912969  1.163817  3.186554
