16  
    
  C    -5.696746 -2.771811  1.535316
  C    -5.550488  0.868404  1.429224
  C    -6.877476 -3.181492  0.783381
  C    -6.788076  0.437091  0.774372
  N    -4.657873 -2.420837  0.759187
  N    -4.493428  1.113982  0.634195
  N    -6.670896 -3.316894 -0.518145
  N    -6.659789  0.242885 -0.526698
  N    -7.596881 -2.802116  3.267328
  N    -7.366085  0.889467  3.270584
  S    -8.312100 -3.232065  1.814984
  S    -8.074868  0.166920  1.915858
  S    -5.099776 -2.782797 -0.803830
  S    -5.028396  0.617736 -0.916784
  S    -5.965108 -2.645236  3.235073
  S    -5.651794  1.021272  3.230832
