16  
    
  C    -1.984259 -1.038952  2.066955
  C    -2.480087  2.561749  2.026118
  C    -3.147903 -1.681210  1.446381
  C    -3.781710  2.214673  1.454217
  N    -0.984881 -0.854781  1.202714
  N    -1.494330  2.644012  1.161513
  N    -3.083675 -1.739622  0.112687
  N    -3.715221  1.850573  0.185157
  N    -3.592548 -1.604058  3.965352
  N    -4.225250  2.478279  3.955702
  S    -4.379997 -2.076527  2.557036
  S    -5.056295  1.933566  2.621733
  S    -1.508863 -1.333423 -0.295028
  S    -2.173317  2.150187 -0.326083
  S    -2.133140 -0.845419  3.812098
  S    -2.647461  2.908136  3.703961
