16  
    
  C    -4.739786 -2.664904  1.505700
  C    -4.620008  1.150932  1.509749
  C    -5.968328 -2.978698  0.874772
  C    -5.866852  0.914812  0.859657
  N    -3.780594 -2.518627  0.639603
  N    -3.583615  1.186566  0.703617
  N    -5.977623 -2.998349 -0.459100
  N    -5.767324  0.836851 -0.470557
  N    -6.410806 -2.724012  3.450556
  N    -6.424828  0.733820  3.369555
  S    -7.279180 -2.974473  2.008288
  S    -7.234401  0.643653  1.840547
  S    -4.418813 -2.741716 -0.878248
  S    -4.159595  0.910055 -0.836598
  S    -4.762216 -2.496861  3.244054
  S    -4.750470  0.909693  3.221629
