16  
    
  C    -0.104550 -0.474609  2.398803
  C    -0.321748  3.372724  2.738053
  C    -1.309244 -0.852966  1.765545
  C    -1.631381  3.159266  2.102676
  N     0.902647 -0.236710  1.560197
  N     0.661898  3.442358  1.838847
  N    -1.293975 -1.065731  0.464736
  N    -1.583277  2.995992  0.764927
  N    -1.904315 -0.586853  4.264486
  N    -2.074188  3.243682  4.636917
  S    -2.608729 -1.301903  2.911758
  S    -2.868160  2.890391  3.226544
  S     0.290192 -0.647874  0.045183
  S     0.005554  3.255400  0.325971
  S    -0.324998 -0.062762  4.134032
  S    -0.513278  3.720676  4.448117
