16  
    
  C     0.911725  0.187741  2.860739
  C     0.569781  3.592238  2.970384
  C    -0.334532 -0.336676  2.261346
  C    -0.825247  3.609742  2.425932
  N     1.905199  0.354694  1.992964
  N     1.444612  3.998067  2.069586
  N    -0.287522 -0.511801  0.933092
  N    -0.890777  3.725431  1.112855
  N    -0.846766 -0.014348  4.809131
  N    -1.162445  3.304363  4.932642
  S    -1.691641 -0.184911  3.394311
  S    -2.083566  3.324453  3.566477
  S     1.251639 -0.054540  0.524966
  S     0.720723  3.875717  0.564275
  S     0.767404  0.309086  4.604013
  S     0.527301  3.388945  4.646320
