16  
    
  C     2.965269  1.494539  3.398582
  C     2.968671  5.105124  3.206129
  C     1.719036  1.155584  2.794282
  C     1.806004  4.484162  2.619693
  N     4.006051  1.710278  2.598455
  N     4.029848  5.215200  2.362482
  N     1.821149  1.135055  1.481877
  N     1.858023  4.408005  1.288423
  N     1.243846  0.985782  5.257201
  N     1.159598  4.994632  5.082574
  S     0.400665  0.818584  3.834126
  S     0.481859  4.386202  3.718567
  S     3.406710  1.401711  1.070776
  S     3.396480  4.779306  0.839007
  S     2.763920  1.588374  5.130196
  S     2.717163  5.400984  4.955701
