16  
    
  C    -1.699314 -1.093617  2.588779
  C    -1.850426  2.482501  2.402663
  C    -2.938856 -1.392747  1.898018
  C    -3.098139  2.343235  1.779409
  N    -0.609743 -1.012280  1.825281
  N    -0.758903  2.609274  1.635203
  N    -2.788740 -1.558410  0.583112
  N    -2.995670  2.301018  0.442134
  N    -3.507685 -1.519428  4.428896
  N    -3.629117  2.352635  4.297040
  S    -4.293364 -1.809283  2.955679
  S    -4.373966  2.014252  2.861071
  S    -1.158938 -1.250849  0.262628
  S    -1.363403  2.373032  0.119325
  S    -1.924700 -0.925086  4.289358
  S    -1.993455  2.536066  4.192350
