16  
    
  C     0.874268  0.215292  2.901770
  C     0.516520  3.735895  2.920525
  C    -0.355062 -0.190843  2.280824
  C    -0.811048  3.452432  2.391459
  N     1.858681  0.374582  2.051339
  N     1.499751  3.832965  2.011591
  N    -0.244196 -0.447716  0.967486
  N    -0.842638  3.707176  1.068493
  N    -0.880190  0.116639  4.832220
  N    -1.067511  3.429359  4.945035
  S    -1.671011 -0.178632  3.403041
  S    -2.079289  3.334576  3.575224
  S     1.331050 -0.048522  0.495055
  S     0.686715  3.866500  0.551635
  S     0.721743  0.454866  4.672455
  S     0.508640  3.498308  4.707571
