16  
    
  C     3.167898  1.640345  3.651318
  C     3.194580  5.149160  3.386322
  C     1.970997  1.076571  3.049052
  C     1.996338  4.721704  2.729393
  N     4.252377  1.775624  2.860127
  N     4.250096  5.315639  2.549286
  N     2.210602  0.769745  1.769427
  N     2.148143  4.465689  1.432310
  N     1.307470  1.555316  5.529761
  N     1.343984  4.740686  5.267709
  S     0.516486  1.116047  4.107479
  S     0.663026  4.382464  3.794314
  S     3.777504  1.251143  1.403748
  S     3.764681  4.810089  1.067205
  S     2.936614  1.942804  5.367864
  S     2.887941  5.325382  5.153325
