16  
    
  C     0.803753  0.306728  2.881838
  C     0.677879  3.593648  2.720063
  C    -0.457638 -0.211933  2.328467
  C    -0.660052  3.444084  2.145364
  N     1.716356  0.569107  1.984532
  N     1.604488  3.887542  1.826521
  N    -0.331852 -0.479049  1.035769
  N    -0.617285  3.276857  0.813057
  N    -0.909921  0.129326  4.868531
  N    -0.919098  3.306803  4.727568
  S    -1.737542 -0.274869  3.496673
  S    -1.950009  3.143414  3.380346
  S     1.121943  0.072382  0.494057
  S     0.892613  3.717865  0.362341
  S     0.656576  0.592285  4.589493
  S     0.650022  3.510350  4.431952
