16  
    
  C    -4.151340 -2.321390  1.568164
  C    -4.292753  1.654101  1.942294
  C    -5.434789 -2.899193  1.080603
  C    -5.426031  1.146845  1.234165
  N    -3.126084 -2.337562  0.748373
  N    -3.221562  1.740309  1.173204
  N    -5.365295 -3.174106 -0.229459
  N    -5.172461  0.649307  0.021159
  N    -5.924986 -2.347748  3.474343
  N    -6.139585  1.535709  3.671676
  S    -6.760620 -2.746580  2.108648
  S    -6.842399  0.993306  2.300204
  S    -3.837886 -2.800379 -0.693750
  S    -3.604924  1.029584 -0.251255
  S    -4.336898 -1.965434  3.269365
  S    -4.560031  2.081995  3.653774
