16  
    
  C     2.014497  1.117037  3.105273
  C     2.206941  4.313728  3.016960
  C     0.767034  0.707605  2.467426
  C     1.018978  3.972335  2.235757
  N     3.083522  1.204808  2.288298
  N     3.229602  4.571660  2.208580
  N     0.918526  0.542883  1.136188
  N     1.279482  3.547014  0.963887
  N     0.333849  0.907512  4.994684
  N     0.282701  4.228780  4.803385
  S    -0.531261  0.456917  3.659121
  S    -0.418152  3.900911  3.318465
  S     2.497907  0.799367  0.799709
  S     2.826554  4.056364  0.704359
  S     1.881408  1.428614  4.803290
  S     1.997165  4.561650  4.744284
