16  
    
  C     1.489482  0.999122  3.300305
  C     1.518223  4.298176  3.476241
  C     0.247572  0.505862  2.716800
  C     0.174449  4.153367  2.933773
  N     2.508877  1.074856  2.443930
  N     2.375438  4.451385  2.517147
  N     0.329073  0.180063  1.442686
  N     0.065280  4.018088  1.621173
  N    -0.195521  0.818730  5.232966
  N    -0.077976  4.679737  5.420477
  S    -1.080148  0.555429  3.830001
  S    -0.985722  4.185326  4.164520
  S     1.890879  0.560621  0.971916
  S     1.681531  4.179325  1.031464
  S     1.289583  1.325231  4.999176
  S     1.513902  4.825087  5.115727
