16  
    
  C     0.702886  0.435645  3.080524
  C     0.569133  3.977799  2.968609
  C    -0.559164  0.134827  2.422078
  C    -0.527371  3.167934  2.454347
  N     1.720331  0.463540  2.244385
  N     1.599761  4.026268  2.118549
  N    -0.406770 -0.056241  1.092372
  N    -0.405561  2.845440  1.125291
  N    -1.075623  0.272762  4.957646
  N    -1.202885  4.006699  4.813367
  S    -1.895325  0.293244  3.550407
  S    -1.905315  3.296837  3.547649
  S     1.169828  0.144007  0.682202
  S     1.087300  3.323662  0.700497
  S     0.588701  0.500658  4.849746
  S     0.455849  4.337523  4.644652
