16  
    
  C    -1.982583 -1.083780  2.066518
  C    -2.506483  2.629609  2.062199
  C    -3.138386 -1.598181  1.427841
  C    -3.784945  2.176034  1.469571
  N    -1.005418 -0.816591  1.182196
  N    -1.514639  2.678292  1.178232
  N    -3.091925 -1.816869  0.092399
  N    -3.724738  1.870351  0.193873
  N    -3.587570 -1.700499  3.979647
  N    -4.272555  2.483270  3.976145
  S    -4.364269 -2.104017  2.556926
  S    -5.074298  1.919092  2.619150
  S    -1.536219 -1.335813 -0.334247
  S    -2.181010  2.134458 -0.310082
  S    -2.146417 -0.845904  3.818034
  S    -2.654180  2.894320  3.714477
