16  
    
  C     3.454793  1.503028  3.617201
  C     3.034939  5.335473  3.386772
  C     2.205820  1.052496  3.137832
  C     1.934517  4.601528  2.762586
  N     4.295336  1.692337  2.587312
  N     4.082186  5.471937  2.611822
  N     2.146262  0.833161  1.820007
  N     2.114991  4.285268  1.493992
  N     1.846589  1.319317  5.617796
  N     1.249773  4.759135  5.178961
  S     0.867872  0.978135  4.293953
  S     0.591179  4.256162  3.747967
  S     3.589653  1.314687  1.213567
  S     3.612717  4.923480  1.092924
  S     3.409579  1.848305  5.306895
  S     2.728956  5.485446  5.059565
