16  
    
  C    -5.826395 -2.736300  1.275562
  C    -5.623537  0.808436  1.526832
  C    -7.066934 -3.017395  0.611475
  C    -6.835335  0.366790  0.854510
  N    -4.792212 -2.529300  0.480114
  N    -4.564302  0.864370  0.723669
  N    -6.904571 -3.172165 -0.701923
  N    -6.645783  0.308793 -0.476846
  N    -7.448081 -3.228921  3.166789
  N    -7.409915  0.506520  3.314652
  S    -8.339329 -3.435365  1.805715
  S    -8.213069  0.305447  1.878949
  S    -5.298397 -2.823467 -1.058800
  S    -5.058145  0.573757 -0.817567
  S    -5.976186 -2.490247  2.974184
  S    -5.892530  1.117725  3.310593
