16  
    
  C    -4.720696 -2.477224  1.446652
  C    -4.556747  1.039007  1.554958
  C    -6.019899 -2.763898  0.861058
  C    -5.850155  0.883260  0.919311
  N    -3.713130 -2.329905  0.606022
  N    -3.488983  1.218131  0.781480
  N    -5.951707 -2.981500 -0.448413
  N    -5.737299  0.855186 -0.413061
  N    -6.448521 -2.697616  3.410099
  N    -6.334369  0.727761  3.354097
  S    -7.306476 -3.032899  2.043886
  S    -7.199416  0.580895  1.968673
  S    -4.344988 -2.647439 -0.922147
  S    -4.146655  1.011000 -0.725644
  S    -4.804761 -2.526226  3.254483
  S    -4.701204  0.935072  3.299933
