16  
    
  C    -0.945844 -0.882750  2.315835
  C    -0.748322  3.003741  2.429197
  C    -2.123764 -1.446629  1.653684
  C    -1.985908  2.628080  1.849979
  N     0.076164 -0.630056  1.489442
  N     0.312901  3.053624  1.646984
  N    -1.852717 -1.860562  0.386592
  N    -1.883952  2.415339  0.568198
  N    -2.796798 -0.865774  4.043425
  N    -2.456488  2.726873  4.406480
  S    -3.439002 -1.513493  2.695397
  S    -3.302127  2.443704  2.969646
  S    -0.307887 -1.299508  0.015898
  S    -0.307431  2.770860  0.108271
  S    -1.256921 -0.238612  3.915572
  S    -0.853915  3.259126  4.178464
