16  
    
  C     1.807146  0.542993  3.080962
  C     1.995775  4.360285  3.397666
  C     0.542460  0.204264  2.444033
  C     0.804797  3.991302  2.724222
  N     2.781951  0.762693  2.244837
  N     2.993808  4.578219  2.548358
  N     0.582902  0.200862  1.124571
  N     0.764819  4.148369  1.420067
  N     0.022489  0.214223  4.931760
  N     0.238968  3.995031  5.248240
  S    -0.719196 -0.128628  3.515239
  S    -0.586193  3.689908  3.785709
  S     2.202883  0.561813  0.694618
  S     2.345119  4.523893  0.996546
  S     1.632748  0.486593  4.830998
  S     1.820229  4.320681  5.098424
