16  
    
  C     1.486065  1.030568  3.218141
  C     1.625482  4.478414  3.400945
  C     0.271096  0.498083  2.604415
  C     0.324799  4.266755  2.836716
  N     2.523664  1.249486  2.405070
  N     2.631553  4.427463  2.592585
  N     0.372321  0.253758  1.322364
  N     0.358579  3.857027  1.593504
  N    -0.255736  0.921351  5.059565
  N    -0.012218  4.612685  5.319892
  S    -1.063453  0.424678  3.710548
  S    -0.868636  4.260827  4.004612
  S     1.910551  0.764896  0.915955
  S     2.003412  4.017167  1.074540
  S     1.320117  1.256254  4.891663
  S     1.619710  4.869796  5.106143
