16  
    
  C     2.818657  1.521121  3.565730
  C     2.982171  5.171375  3.465564
  C     1.638805  0.887519  3.072351
  C     1.729628  4.788166  2.811480
  N     3.739085  1.618458  2.582680
  N     3.927996  5.604595  2.593792
  N     1.653138  0.538946  1.796536
  N     1.845523  4.647611  1.487307
  N     1.085821  1.447093  5.506318
  N     1.057910  5.110542  5.250749
  S     0.381508  0.653893  4.211230
  S     0.428266  4.358038  3.859665
  S     3.151786  1.054506  1.203904
  S     3.381702  5.221204  1.067834
  S     2.694224  1.845386  5.394311
  S     2.720180  5.366610  5.225677
