16  
    
  C    -3.493409 -2.223797  1.868974
  C    -3.749539  1.948483  1.915553
  C    -4.567929 -3.038909  1.302808
  C    -4.729213  1.099894  1.281384
  N    -2.364982 -2.055690  1.129083
  N    -2.775033  2.357080  1.097136
  N    -4.357195 -3.298256  0.019812
  N    -4.423939  0.739728  0.037575
  N    -5.382394 -2.496818  3.656545
  N    -5.429952  1.343531  3.740474
  S    -5.972475 -3.178036  2.257870
  S    -5.905377  0.542129  2.347000
  S    -2.814867 -2.820668 -0.311693
  S    -3.046560  1.573814 -0.329133
  S    -3.759448 -2.044659  3.585466
  S    -4.155454  2.372173  3.501983
