16  
    
  C    -1.639432 -1.173490  2.095129
  C    -1.721272  2.284924  1.951345
  C    -2.923831 -1.465487  1.524604
  C    -3.016304  2.045017  1.253902
  N    -0.559168 -1.248739  1.290955
  N    -0.715275  2.493197  1.123958
  N    -2.830383 -1.497995  0.164335
  N    -2.891451  1.907579 -0.053544
  N    -3.268003 -0.982319  3.983263
  N    -3.512174  2.300048  3.777806
  S    -4.197902 -1.184108  2.644345
  S    -4.291904  1.869710  2.381058
  S    -1.215439 -1.391313 -0.253841
  S    -1.305037  2.210532 -0.433085
  S    -1.600698 -0.857798  3.811768
  S    -1.848037  2.381728  3.681840
