16  
    
  C    -2.919514 -1.957284  2.071240
  C    -3.368019  1.605440  2.101470
  C    -4.255126 -2.101116  1.483427
  C    -4.663914  1.272883  1.456835
  N    -1.917972 -1.807340  1.223186
  N    -2.374615  1.610794  1.220029
  N    -4.251925 -2.213396  0.142739
  N    -4.639310  1.093822  0.131549
  N    -4.588959 -1.984650  4.027334
  N    -5.055178  1.651977  3.961067
  S    -5.539815 -2.180474  2.659133
  S    -5.957494  1.136844  2.668264
  S    -2.667705 -2.019703 -0.302408
  S    -3.029177  1.357204 -0.318600
  S    -3.016644 -1.580677  3.784842
  S    -3.396138  1.738013  3.849495
