16  
    
  C    -1.633316 -1.179516  2.094999
  C    -1.722418  2.284961  1.941630
  C    -2.924976 -1.464157  1.522309
  C    -3.019899  2.035103  1.256713
  N    -0.559559 -1.259304  1.290896
  N    -0.711293  2.492768  1.122816
  N    -2.824072 -1.499506  0.165737
  N    -2.892834  1.919776 -0.050366
  N    -3.265235 -0.981214  3.984951
  N    -3.509439  2.306482  3.774435
  S    -4.194074 -1.184706  2.642595
  S    -4.290643  1.866986  2.387942
  S    -1.208940 -1.390006 -0.249974
  S    -1.307757  2.211040 -0.434704
  S    -1.595950 -0.853254  3.811039
  S    -1.846278  2.383418  3.681501
