16  
    
  C    -2.972742 -1.586775  1.973841
  C    -2.522435  2.115798  2.003248
  C    -4.083001 -2.230037  1.342162
  C    -3.781240  1.971849  1.359305
  N    -1.925567 -1.333105  1.198763
  N    -1.509240  2.142761  1.145919
  N    -3.947164 -2.241709  0.009420
  N    -3.758443  1.565910  0.081192
  N    -4.648896 -2.133673  3.796508
  N    -4.202547  2.246476  3.913370
  S    -5.402551 -2.623722  2.397869
  S    -5.090932  2.077400  2.549283
  S    -2.424484 -1.611124 -0.332115
  S    -2.116730  1.685009 -0.321183
  S    -3.080318 -1.603885  3.685093
  S    -2.590996  2.325462  3.739736
