16  
    
  C    -4.088482 -2.295351  1.765154
  C    -4.077586  1.428875  1.685143
  C    -5.419119 -2.310091  1.203448
  C    -5.348912  1.234482  1.001376
  N    -3.082947 -2.244308  0.853535
  N    -2.966460  1.279680  0.935272
  N    -5.438574 -2.417388 -0.117855
  N    -5.206798  1.138140 -0.317964
  N    -5.717077 -1.843403  3.729178
  N    -5.922006  1.576706  3.572943
  S    -6.584106 -2.287414  2.398293
  S    -6.721678  1.324091  2.116165
  S    -3.856232 -2.273681 -0.617051
  S    -3.551646  1.123068 -0.692921
  S    -4.064164 -1.836641  3.460487
  S    -4.265557  1.676033  3.374560
