16  
    
  C     0.891320  0.282959  2.928429
  C     0.484607  3.593834  2.948193
  C    -0.349116 -0.059583  2.308290
  C    -0.813727  3.666761  2.387765
  N     1.941624  0.390044  2.100589
  N     1.448068  3.725400  2.037302
  N    -0.242519 -0.334204  0.997898
  N    -0.881260  3.506070  1.043920
  N    -0.895722  0.217597  4.791682
  N    -1.139796  3.523316  4.947752
  S    -1.731891 -0.194982  3.387795
  S    -2.016846  3.301895  3.584275
  S     1.321553 -0.030739  0.623898
  S     0.724599  3.833796  0.539572
  S     0.739715  0.581933  4.647161
  S     0.544086  3.662278  4.691634
