16  
    
  C     1.434460  1.023283  3.360517
  C     1.394607  4.634012  3.367915
  C     0.168291  0.631567  2.754965
  C     0.114018  4.094689  2.933428
  N     2.507247  0.939642  2.567671
  N     2.349261  4.596950  2.428808
  N     0.263771  0.298329  1.434730
  N    -0.001797  3.916024  1.625640
  N    -0.198956  0.856242  5.288330
  N    -0.120198  4.562823  5.471508
  S    -1.125295  0.436450  3.925922
  S    -1.140285  4.134498  4.176300
  S     1.898599  0.378395  1.092454
  S     1.510717  4.304516  0.961780
  S     1.399946  1.319459  5.085368
  S     1.564154  4.698245  5.045927
