16  
    
  C    -0.091567 -0.455775  2.573896
  C     0.082968  3.502248  2.391271
  C    -1.427396 -0.644860  2.004168
  C    -1.210842  3.296307  1.785602
  N     0.842589 -0.249911  1.660528
  N     1.051713  3.705008  1.476193
  N    -1.458961 -0.683446  0.686453
  N    -1.154895  3.105378  0.461882
  N    -1.776613 -0.368329  4.539917
  N    -1.686168  3.505943  4.288385
  S    -2.715167 -0.677183  3.200012
  S    -2.513795  3.044570  2.936280
  S     0.066437 -0.352467  0.237122
  S     0.433946  3.380191  0.001577
  S    -0.144821 -0.099302  4.292576
  S    -0.057497  3.870768  4.024837
