16  
    
  C    -3.684043 -2.452919  1.779417
  C    -3.416446  1.723923  1.794039
  C    -4.863169 -2.882137  1.108959
  C    -4.562228  1.060776  1.143159
  N    -2.630373 -2.336674  0.967896
  N    -2.489332  1.994524  0.875384
  N    -4.747022 -2.913742 -0.200518
  N    -4.346596  0.697077 -0.159036
  N    -5.433679 -2.773132  3.633905
  N    -5.293266  1.518006  3.653319
  S    -6.196712 -3.059509  2.168116
  S    -5.900136  0.768491  2.268879
  S    -3.173212 -2.573725 -0.546863
  S    -2.867582  1.362070 -0.609927
  S    -3.813279 -2.516741  3.539199
  S    -3.702042  2.124051  3.482342
