16  
    
  C    -3.144963 -1.894011  1.895183
  C    -3.600984  1.723946  2.080332
  C    -4.364445 -2.315196  1.247452
  C    -4.649895  1.040069  1.405829
  N    -2.168194 -1.766883  1.018459
  N    -2.514289  1.857214  1.302549
  N    -4.238310 -2.694485 -0.017263
  N    -4.410835  0.809210  0.112938
  N    -4.864292 -2.042291  3.767313
  N    -5.518847  1.468544  3.787760
  S    -5.566535 -2.750147  2.449646
  S    -6.128145  0.927386  2.380683
  S    -2.689540 -2.287125 -0.463117
  S    -2.829684  1.280526 -0.173039
  S    -3.314465 -1.432974  3.544370
  S    -4.001837  1.948212  3.712634
