16  
    
  C     1.036438  0.262532  3.083399
  C     1.077945  4.097757  2.665239
  C    -0.184812  0.044913  2.356923
  C    -0.100669  3.508882  2.067525
  N     2.117907  0.286915  2.328702
  N     2.093150  4.337367  1.789841
  N    -0.054239 -0.128384  1.072323
  N     0.075007  2.928925  0.874675
  N    -0.779149 -0.060183  4.798538
  N    -0.826643  4.270392  4.411570
  S    -1.547034  0.042682  3.362630
  S    -1.435744  3.332995  3.183138
  S     1.573972  0.031795  0.754221
  S     1.614884  3.449288  0.388219
  S     0.799830  0.290800  4.759957
  S     0.775625  4.731387  4.196540
