16  
    
  C     1.591988  0.845272  3.250644
  C     2.066208  4.478672  3.247705
  C     0.523483  0.243540  2.472383
  C     0.805468  4.024361  2.675779
  N     2.656019  1.177131  2.515982
  N     3.072169  4.742762  2.418407
  N     0.786646  0.117177  1.181995
  N     0.902236  3.922399  1.377458
  N    -0.248980  0.374238  4.950595
  N     0.271623  4.391273  5.169093
  S    -0.928600 -0.033295  3.537729
  S    -0.546545  3.811857  3.842168
  S     2.303824  0.747759  0.955553
  S     2.437963  4.227651  0.912989
  S     1.274832  1.128440  4.988339
  S     1.807450  4.941854  4.980928
