16  
    
  C    -1.818291 -1.069953  2.345212
  C    -1.969075  2.556119  2.638718
  C    -3.127057 -1.411092  1.793879
  C    -3.047374  1.975917  1.932084
  N    -0.888700 -0.776202  1.462773
  N    -0.876280  2.694717  1.877840
  N    -3.011112 -1.691072  0.513735
  N    -2.891319  1.786767  0.623877
  N    -3.543920 -1.163363  4.346955
  N    -3.726532  2.099555  4.409076
  S    -4.431108 -1.463508  2.921236
  S    -4.457732  1.792681  2.935643
  S    -1.480845 -1.312749 -0.003932
  S    -1.354464  2.339950  0.301857
  S    -1.917847 -0.837507  4.093544
  S    -2.113372  2.402849  4.382938
