16  
    
  C    -3.544874 -2.539102  1.905808
  C    -3.634870  1.829142  1.861008
  C    -4.663577 -3.097242  1.206416
  C    -4.689027  1.025029  1.252894
  N    -2.449398 -2.449393  1.120950
  N    -2.708093  2.211393  0.966695
  N    -4.557266 -3.074886 -0.123035
  N    -4.357231  0.640472  0.007876
  N    -5.445369 -2.578408  3.687790
  N    -5.379132  1.497900  3.662697
  S    -6.053665 -3.330875  2.326379
  S    -5.920717  0.628943  2.307572
  S    -2.978944 -2.702000 -0.439127
  S    -2.996057  1.474277 -0.410361
  S    -3.855247 -2.251996  3.546907
  S    -3.850745  2.232191  3.515423
