16  
    
  C    -5.848860 -3.145547  1.471953
  C    -6.058623  0.819207  1.371739
  C    -7.019628 -3.359561  0.679334
  C    -7.245090  0.444969  0.703980
  N    -4.731670 -2.902000  0.817850
  N    -5.073804  1.163805  0.569416
  N    -6.793297 -3.594484 -0.630059
  N    -7.202856  0.383277 -0.620171
  N    -7.794780 -3.239036  3.144049
  N    -7.727752  0.244217  3.225374
  S    -8.456136 -3.408435  1.643923
  S    -8.571472  0.103645  1.753311
  S    -5.154070 -3.245394 -0.770867
  S    -5.617434  0.846016 -1.001167
  S    -6.100948 -2.993096  3.145613
  S    -6.122339  0.730593  3.045120
