16  
    
  C     1.916386  0.476299  3.083428
  C     1.883235  4.182424  3.307285
  C     0.582614  0.190314  2.585198
  C     0.597391  4.080457  2.631768
  N     2.838442  0.579501  2.110035
  N     2.855048  4.272223  2.416812
  N     0.491691  0.129371  1.251387
  N     0.614009  3.853876  1.324284
  N     0.229081  0.264130  5.146742
  N     0.165320  4.072433  5.142396
  S    -0.678107  0.161751  3.753461
  S    -0.678775  4.006515  3.759206
  S     2.080188  0.413792  0.629861
  S     2.223004  4.215208  0.869703
  S     1.851854  0.730896  4.788050
  S     1.785719  4.183839  5.044115
