16  
    
  C     2.539787  1.097606  3.247407
  C     3.011731  5.380008  3.843668
  C     1.377958  0.526153  2.640951
  C     1.717589  4.978093  3.340172
  N     3.550042  1.292760  2.395865
  N     4.013087  5.126064  2.973529
  N     1.515540  0.285901  1.343404
  N     1.726556  4.652629  2.024228
  N     0.630044  0.776701  5.044315
  N     1.238737  5.689606  5.815254
  S    -0.085765  0.342668  3.622655
  S     0.363704  5.307959  4.416887
  S     3.051896  0.766005  0.926665
  S     3.304028  4.786456  1.536879
  S     2.182594  1.339488  4.959093
  S     2.902680  5.857655  5.571536
