16  
    
  C    -0.122083  0.001522  2.574213
  C    -0.061684  3.684189  2.512588
  C    -1.364786 -0.439927  2.000922
  C    -1.235582  2.989156  1.916152
  N     0.812466  0.304211  1.651024
  N     0.964097  3.785961  1.698534
  N    -1.278676 -0.794983  0.687999
  N    -0.969922  2.563748  0.713452
  N    -1.590557 -0.418838  4.617901
  N    -1.752822  3.486545  4.443150
  S    -2.510509 -0.790866  3.279844
  S    -2.497991  2.743777  3.067964
  S     0.224922 -0.287612  0.238774
  S     0.529363  3.203544  0.226173
  S    -0.080582  0.204810  4.342219
  S    -0.222209  4.070857  4.171469
