16  
    
  C    -1.642813 -1.158727  2.099898
  C    -1.725437  2.291619  1.978982
  C    -2.910359 -1.455993  1.514784
  C    -2.988830  2.078414  1.250971
  N    -0.569123 -1.201974  1.288047
  N    -0.728577  2.491049  1.126789
  N    -2.856250 -1.497394  0.163270
  N    -2.887207  1.862266 -0.065098
  N    -3.281125 -0.987253  3.986047
  N    -3.522907  2.270958  3.790845
  S    -4.212985 -1.181834  2.652197
  S    -4.300655  1.880713  2.354689
  S    -1.244590 -1.396595 -0.264715
  S    -1.293132  2.208264 -0.424487
  S    -1.624611 -0.875890  3.812791
  S    -1.855343  2.375845  3.683069
