16  
    
  C    -0.201000 -0.331683  2.443363
  C    -0.354815  3.262793  2.525053
  C    -1.256966 -0.906916  1.767922
  C    -1.724482  3.090779  1.970920
  N     0.890304 -0.175547  1.729631
  N     0.616874  3.564731  1.645582
  N    -1.013501 -1.077914  0.451506
  N    -1.648819  2.909820  0.645312
  N    -1.895646 -0.620604  4.259101
  N    -2.010487  3.167017  4.579820
  S    -2.562677 -1.212453  2.867767
  S    -2.918894  2.979981  3.202505
  S     0.503238 -0.555736  0.178877
  S    -0.064113  3.157338  0.172828
  S    -0.366827  0.037519  4.166378
  S    -0.372184  3.458680  4.241734
