16  
    
  C    -0.148486 -0.162765  2.531019
  C    -0.018711  3.779625  2.421136
  C    -1.427021 -0.488375  2.031244
  C    -1.208868  3.114239  1.830235
  N     0.761240  0.057674  1.576115
  N     0.963112  3.770511  1.533943
  N    -1.434875 -0.779136  0.709233
  N    -1.133021  2.825814  0.513219
  N    -1.716854 -0.316726  4.605169
  N    -1.760741  3.489085  4.328466
  S    -2.632236 -0.709036  3.294369
  S    -2.508368  3.018790  2.931793
  S     0.092331 -0.386185  0.122136
  S     0.388353  3.238109  0.069163
  S    -0.107878 -0.100217  4.284877
  S    -0.113292  4.003326  4.154725
