16  
    
  C     1.102908  0.122787  2.943748
  C     0.907620  3.698704  3.072046
  C    -0.178296 -0.407728  2.452732
  C    -0.411797  3.472515  2.537545
  N     2.007562  0.246197  1.964998
  N     1.869567  3.826263  2.118887
  N    -0.173678 -0.758031  1.155617
  N    -0.352408  3.197731  1.222410
  N    -0.366539 -0.049748  4.945553
  N    -0.839273  3.444272  5.021048
  S    -1.364994 -0.550417  3.738997
  S    -1.713696  3.264410  3.650476
  S     1.309390 -0.291688  0.604391
  S     1.132992  3.570513  0.706332
  S     1.210774  0.456383  4.658351
  S     0.798247  3.917657  4.778660
