16  
    
  C     2.396494  1.041521  3.228717
  C     2.968385  5.196656  3.961306
  C     1.243069  0.492165  2.533618
  C     1.685842  4.970081  3.360688
  N     3.492525  1.276588  2.529560
  N     3.984313  5.342786  3.130933
  N     1.473346  0.248489  1.239273
  N     1.770434  4.701705  2.058184
  N     0.560910  1.026881  5.032525
  N     1.241875  5.796624  5.690276
  S    -0.124603  0.366036  3.646590
  S     0.365707  5.136006  4.454008
  S     3.062486  0.753988  0.935164
  S     3.379516  4.834888  1.649524
  S     2.241295  1.331903  4.935174
  S     2.882398  5.911713  5.492274
