16  
    
  C     1.737914  0.588268  3.033762
  C     1.912641  4.195444  3.320622
  C     0.489704  0.204366  2.469733
  C     0.591526  4.107390  2.693651
  N     2.720461  0.793835  2.148871
  N     2.956090  4.363699  2.520000
  N     0.535180  0.043174  1.136394
  N     0.710526  4.202319  1.386353
  N     0.165333  0.347770  4.996671
  N     0.219934  3.940331  5.212355
  S    -0.798491  0.037857  3.598019
  S    -0.699285  3.770463  3.813784
  S     2.132201  0.465304  0.654700
  S     2.342038  4.334241  0.980963
  S     1.841872  0.485725  4.744864
  S     1.803082  4.258218  5.088879
