16  
    
  C    -0.112016 -0.223597  2.482880
  C    -0.368245  3.453971  2.508794
  C    -1.257489 -0.759229  1.851968
  C    -1.662676  2.942543  1.978109
  N     0.945961  0.108175  1.712544
  N     0.589790  3.456072  1.584887
  N    -1.054983 -1.122187  0.575134
  N    -1.614604  2.694820  0.684714
  N    -2.021379 -0.653778  4.298478
  N    -1.976897  3.156382  4.470458
  S    -2.708064 -1.130655  2.806779
  S    -2.908455  2.986498  3.136393
  S     0.508445 -0.596430  0.209252
  S    -0.091133  3.124608  0.122892
  S    -0.465847 -0.055183  4.206411
  S    -0.372853  3.378237  4.286385
