16  
    
  C    -3.529279 -2.469317  1.949761
  C    -3.717852  1.993344  1.829766
  C    -4.677186 -2.938768  1.216834
  C    -4.689356  1.016399  1.284660
  N    -2.486126 -2.259918  1.141685
  N    -2.691512  2.344421  1.010420
  N    -4.420452 -3.294590 -0.047905
  N    -4.413172  0.745950  0.005041
  N    -5.381048 -2.482808  3.618371
  N    -5.445628  1.392663  3.746137
  S    -5.991458 -3.326504  2.274647
  S    -5.948798  0.570069  2.421724
  S    -2.867123 -2.776160 -0.354700
  S    -2.975994  1.504038 -0.437778
  S    -3.778580 -2.115645  3.623419
  S    -4.058660  2.284496  3.544080
