16  
    
  C     0.692775  0.478032  3.068968
  C     0.623151  3.817382  2.956917
  C    -0.507284  0.068254  2.399057
  C    -0.585290  3.247880  2.447358
  N     1.745264  0.498293  2.249873
  N     1.564520  4.100494  2.046151
  N    -0.422718 -0.101076  1.092049
  N    -0.468879  2.892801  1.206717
  N    -1.041116  0.272594  4.932431
  N    -1.185258  4.005394  4.848886
  S    -1.856803  0.274039  3.495588
  S    -1.976563  3.300336  3.561906
  S     1.184996  0.148993  0.713880
  S     1.067158  3.306911  0.714870
  S     0.628933  0.529518  4.831247
  S     0.461996  4.295726  4.625019
