16  
    
  C     1.424911  0.758818  2.957845
  C     0.989958  4.048998  2.670654
  C     0.201477  0.280936  2.290238
  C    -0.196601  3.661085  1.911774
  N     2.417259  1.029293  2.145140
  N     2.057061  4.374281  1.904062
  N     0.306913  0.108046  0.984149
  N     0.020978  3.397902  0.621675
  N    -0.310591  0.390018  4.852764
  N    -0.925191  3.789224  4.364027
  S    -1.163776  0.112971  3.520294
  S    -1.551545  3.132671  2.958741
  S     1.859831  0.638645  0.574436
  S     1.581993  4.026222  0.310652
  S     1.303781  0.759434  4.717741
  S     0.610344  4.393205  4.297586
