16  
    
  C     1.027617  0.171331  2.977766
  C     1.006151  4.050120  2.691375
  C    -0.281226 -0.094182  2.418091
  C    -0.209338  3.380323  2.191893
  N     2.025769  0.235740  2.136971
  N     1.939838  4.176010  1.774987
  N    -0.229621 -0.103829  1.089706
  N    -0.122821  2.824983  0.991745
  N    -0.695840 -0.168738  4.979326
  N    -0.709520  4.362227  4.560333
  S    -1.607377 -0.259539  3.539213
  S    -1.449239  3.417377  3.385166
  S     1.374304  0.029174  0.569756
  S     1.423079  3.287002  0.411087
  S     0.928517  0.178074  4.729293
  S     0.885098  4.770910  4.299238
