16  
    
  C     1.329700  0.880409  3.248139
  C     1.106369  4.468365  3.023150
  C     0.088008  0.401081  2.742620
  C     0.010607  3.906962  2.375141
  N     2.294694  0.857556  2.319554
  N     2.185689  4.643972  2.241385
  N     0.104350  0.025563  1.465130
  N     0.154186  3.923537  1.065661
  N    -0.303068  0.840804  5.231666
  N    -0.711124  4.073383  4.830945
  S    -1.146440  0.353968  3.899845
  S    -1.396203  3.641279  3.336654
  S     1.678540  0.235216  0.965645
  S     1.682510  4.394004  0.709521
  S     1.349073  1.206969  4.976452
  S     0.940065  4.397993  4.730802
