16  
    
  C     2.064283  0.663180  3.141865
  C     2.039426  4.456663  2.968343
  C     0.782584  0.413875  2.564364
  C     0.806333  3.973415  2.382016
  N     3.089757  0.648369  2.279695
  N     3.129428  4.497977  2.203599
  N     0.856550  0.124526  1.233360
  N     1.038190  3.625660  1.118623
  N     0.354362  0.976514  5.141854
  N     0.344175  4.435882  4.856406
  S    -0.549089  0.647026  3.711747
  S    -0.533163  3.934057  3.525458
  S     2.402439  0.299836  0.799978
  S     2.592959  4.004958  0.698688
  S     2.046121  0.962695  4.901293
  S     1.902682  4.788959  4.709256
