16  
    
  C    -1.037998 -0.674368  2.388062
  C    -0.696137  3.256472  2.726933
  C    -2.287222 -1.139637  1.710705
  C    -1.882375  2.647609  2.173730
  N    -0.032441 -0.558536  1.552043
  N     0.396919  3.252169  1.972768
  N    -2.097632 -1.425671  0.450158
  N    -1.745347  2.378540  0.875648
  N    -2.794809 -0.833469  4.265124
  N    -2.405593  3.090599  4.570881
  S    -3.549696 -1.169194  2.819150
  S    -3.262429  2.799687  3.247743
  S    -0.541097 -1.036729  0.060372
  S    -0.151853  2.665570  0.491022
  S    -1.161795 -0.415534  4.103853
  S    -0.812261  3.473683  4.492264
