16  
    
  C     0.682528  0.307610  3.080440
  C     0.686902  3.930424  2.875577
  C    -0.609260 -0.008915  2.459564
  C    -0.578563  3.455369  2.244501
  N     1.690489  0.249262  2.213175
  N     1.729593  3.892036  2.078084
  N    -0.536142 -0.093096  1.142872
  N    -0.455712  3.224911  0.954699
  N    -1.106693  0.244872  5.000363
  N    -0.986790  3.635501  4.847698
  S    -1.931539  0.068529  3.592372
  S    -1.809006  3.212026  3.398319
  S     1.025059  0.020982  0.681937
  S     1.087942  3.647652  0.515932
  S     0.511391  0.477700  4.759882
  S     0.586396  4.091034  4.621844
