16  
    
  C    -1.539593 -1.131412  2.734001
  C    -1.577111  2.638907  2.402897
  C    -2.588685 -1.650454  1.865924
  C    -2.781440  2.280621  1.683042
  N    -0.419400 -0.892212  2.019566
  N    -0.504156  2.788429  1.634312
  N    -2.327578 -1.628591  0.516158
  N    -2.553344  1.872630  0.454541
  N    -3.453858 -1.506472  4.303710
  N    -3.528468  2.476914  4.108679
  S    -4.013306 -1.924610  2.802519
  S    -4.224289  2.030834  2.660748
  S    -0.749243 -1.193342  0.446178
  S    -0.941007  2.228040  0.095537
  S    -1.809987 -1.190020  4.402750
  S    -1.915461  2.891702  4.083570
