16  
    
  C    -3.958997 -1.807758  1.666297
  C    -3.822259  1.607510  1.785435
  C    -5.208749 -2.134751  1.049246
  C    -5.118294  1.227802  1.115352
  N    -2.893100 -1.666651  0.885558
  N    -2.809089  1.603086  0.936573
  N    -5.011183 -2.557667 -0.170170
  N    -5.071507  1.173442 -0.207557
  N    -5.783626 -2.072906  3.486000
  N    -5.552308  1.478838  3.662966
  S    -6.607805 -2.306110  2.044108
  S    -6.451155  1.344399  2.241238
  S    -3.408907 -2.316390 -0.581996
  S    -3.462156  1.418377 -0.643513
  S    -4.187697 -1.542560  3.378684
  S    -3.919729  1.728275  3.486993
