16  
    
  C    -4.294228 -1.852245  1.988918
  C    -4.154326  1.540183  1.877064
  C    -5.546527 -2.195603  1.349068
  C    -5.435225  1.117997  1.364190
  N    -3.240837 -1.721290  1.147090
  N    -3.110812  1.494859  1.037867
  N    -5.408081 -2.574827  0.083410
  N    -5.362313  0.914374  0.064784
  N    -6.044575 -2.094565  3.956791
  N    -5.824708  1.441944  3.867760
  S    -6.790608 -2.402046  2.520642
  S    -6.688927  0.976995  2.480618
  S    -3.805515 -2.320531 -0.289805
  S    -3.813373  1.097370 -0.361703
  S    -4.422710 -1.629078  3.737339
  S    -4.204152  1.792200  3.564961
