16  
    
  C     3.149003  1.627652  3.714867
  C     3.158672  5.250797  3.394400
  C     2.003052  1.098384  3.049850
  C     2.034483  4.678174  2.731615
  N     4.176409  1.781496  2.884831
  N     4.256627  5.225297  2.643084
  N     2.220609  0.783382  1.767257
  N     2.132000  4.474770  1.429352
  N     1.309098  1.615088  5.497869
  N     1.371238  4.822330  5.271974
  S     0.529681  1.133289  4.119744
  S     0.655474  4.429541  3.818580
  S     3.779385  1.288145  1.420377
  S     3.768831  4.814210  1.075155
  S     2.926672  1.875369  5.368454
  S     2.908097  5.282619  5.105723
