16  
    
  C     0.668972 -0.168632  2.760418
  C     0.334782  3.563948  2.938227
  C    -0.588405 -0.532950  2.150592
  C    -0.853036  3.162730  2.206362
  N     1.698961 -0.040970  1.882154
  N     1.353568  3.901500  2.163530
  N    -0.601315 -0.442959  0.802845
  N    -0.809374  3.465011  0.912992
  N    -1.032810 -0.443692  4.794965
  N    -1.402494  3.125330  4.730831
  S    -1.902587 -0.649012  3.418804
  S    -2.231594  2.850960  3.296695
  S     0.979199 -0.117536  0.375529
  S     0.841015  3.753387  0.582088
  S     0.557294 -0.048093  4.537727
  S     0.184334  3.418492  4.604516
