16  
    
  C     1.038257  0.278495  2.954323
  C     0.456817  3.617185  2.847497
  C    -0.163611 -0.210912  2.253145
  C    -0.642962  3.101392  2.055476
  N     2.083741  0.603429  2.169433
  N     1.504119  3.958366  2.099068
  N    -0.063640 -0.114206  0.916349
  N    -0.385381  2.948968  0.766440
  N    -0.811314 -0.265592  4.728149
  N    -1.362410  3.221097  4.542012
  S    -1.507735 -0.427891  3.251816
  S    -1.951057  2.728725  3.042029
  S     1.499193  0.409902  0.644928
  S     1.173662  3.618206  0.552755
  S     0.798058  0.235827  4.609477
  S     0.219201  3.724487  4.554639
