16  
    
  C    -4.685557 -2.478510  1.724412
  C    -4.840037  1.164697  1.622434
  C    -5.980306 -2.872926  1.164274
  C    -5.933540  0.453406  1.022202
  N    -3.762074 -2.213447  0.787137
  N    -3.812865  1.396007  0.772912
  N    -5.916803 -3.122333 -0.128951
  N    -5.738782  0.303397 -0.273247
  N    -6.360531 -2.674782  3.657889
  N    -6.697872  0.855171  3.409553
  S    -7.217932 -3.117295  2.330024
  S    -7.325655  0.137334  2.069844
  S    -4.476056 -2.586487 -0.676140
  S    -4.259432  0.875383 -0.718674
  S    -4.789721 -2.144716  3.431720
  S    -5.114522  1.405156  3.334561
