16  
    
  C     1.675820  0.830469  3.261766
  C     1.984879  4.473374  3.279400
  C     0.634194  0.189046  2.519668
  C     0.739711  4.171977  2.642278
  N     2.733111  1.225475  2.554151
  N     3.042301  4.675773  2.483387
  N     0.887043 -0.007312  1.217690
  N     0.865425  3.878441  1.336980
  N    -0.335066  0.351653  4.929572
  N     0.409786  4.202367  5.172756
  S    -0.770784 -0.226253  3.451990
  S    -0.378310  3.686723  3.816308
  S     2.386328  0.665098  1.018023
  S     2.454065  4.423480  0.914588
  S     1.342672  0.818593  4.941883
  S     1.830626  4.886498  4.976591
