16  
    
  C     3.189010  1.647038  3.285453
  C     3.058604  5.093640  3.364816
  C     1.903485  1.387121  2.646003
  C     1.869215  4.678505  2.686298
  N     4.164281  1.583428  2.389331
  N     4.153189  5.014337  2.614428
  N     1.960396  1.052828  1.337284
  N     1.987842  4.617454  1.344338
  N     1.446912  1.592239  5.162668
  N     1.280037  5.002127  5.208109
  S     0.520866  1.526269  3.793060
  S     0.464386  4.615532  3.832800
  S     3.596120  1.183282  0.957355
  S     3.681162  4.861081  1.046223
  S     3.069228  1.895853  5.025051
  S     2.907225  5.250724  5.113105
