16  
    
  C     0.047387 -0.602490  2.483074
  C    -0.235359  3.126551  2.645527
  C    -1.226345 -1.041158  1.910434
  C    -1.417488  2.507719  2.041581
  N     1.053164 -0.582744  1.623948
  N     0.729396  3.291707  1.743835
  N    -1.194732 -1.179988  0.590907
  N    -1.470586  2.587504  0.712578
  N    -1.685381 -0.774447  4.381719
  N    -1.925982  2.863666  4.600317
  S    -2.527881 -1.237237  3.049244
  S    -2.707364  2.324868  3.197357
  S     0.413241 -0.919759  0.083491
  S     0.091794  2.932182  0.241469
  S    -0.051872 -0.348044  4.188724
  S    -0.318004  3.459410  4.369147
