16  
    
  C     0.975194  0.230778  2.910745
  C     0.547624  3.460047  2.815934
  C    -0.181783 -0.141864  2.226134
  C    -0.660066  3.168953  2.047297
  N     1.967880  0.612863  2.169650
  N     1.522528  3.961955  2.095349
  N    -0.079838 -0.128846  0.913501
  N    -0.518983  3.085986  0.710474
  N    -0.768934 -0.207770  4.701407
  N    -1.338626  3.239475  4.528298
  S    -1.517562 -0.496238  3.237670
  S    -1.969911  2.771097  3.120779
  S     1.430961  0.387951  0.583633
  S     1.132683  3.575049  0.496144
  S     0.815368  0.289435  4.633695
  S     0.280710  3.700014  4.503230
