16  
    
  C    -0.888024 -0.523893  2.454688
  C    -1.076655  3.031443  2.458382
  C    -2.068007 -1.168048  1.787393
  C    -2.306339  2.798859  1.754351
  N     0.175131 -0.348114  1.682508
  N    -0.025759  3.109503  1.676087
  N    -1.882138 -1.203337  0.463843
  N    -2.204774  2.551539  0.448355
  N    -2.684277 -1.183635  4.286756
  N    -2.878395  3.204188  4.248004
  S    -3.412482 -1.533463  2.811342
  S    -3.690001  2.978264  2.851144
  S    -0.332999 -0.716133  0.120506
  S    -0.534222  2.674957  0.144929
  S    -1.105050 -0.593109  4.132400
  S    -1.244308  3.357459  4.161767
