16  
    
  C    -0.215866 -0.377492  2.774964
  C     0.119583  3.563507  2.297141
  C    -1.349026 -0.863989  1.957047
  C    -1.038695  3.006934  1.698873
  N     0.854177 -0.100548  2.031148
  N     1.216804  3.651493  1.520068
  N    -1.078141 -0.966530  0.649657
  N    -0.959363  2.953929  0.365175
  N    -2.123799 -0.649203  4.465123
  N    -1.494865  2.849118  4.228753
  S    -2.752733 -0.960126  2.981449
  S    -2.385350  2.818564  2.809270
  S     0.510584 -0.486085  0.441917
  S     0.585396  3.500721 -0.040345
  S    -0.496689 -0.255808  4.536476
  S     0.104909  3.403995  4.037475
