16  
    
  C    -1.332362 -0.711023  1.968676
  C    -1.445448  3.381013  2.032435
  C    -2.514615 -1.418551  1.512917
  C    -2.540849  2.616146  1.397177
  N    -0.403712 -0.550578  0.997789
  N    -0.548214  3.824002  1.155850
  N    -2.555147 -1.608290  0.188529
  N    -2.384939  2.350874  0.088158
  N    -2.772022 -1.131701  4.035731
  N    -3.098783  2.771013  3.906313
  S    -3.776653 -1.493750  2.732574
  S    -3.809733  2.186916  2.513586
  S    -1.139888 -1.038168 -0.404490
  S    -0.902761  3.081357 -0.315936
  S    -1.236946 -0.563335  3.645166
  S    -1.615675  3.497275  3.765166
