16  
    
  C    -0.633574 -0.398856  2.653395
  C    -0.425123  3.413181  2.646610
  C    -1.880885 -0.740377  2.046781
  C    -1.381641  2.511071  2.079726
  N     0.359302 -0.214558  1.767837
  N     0.721022  3.577776  1.958945
  N    -1.738417 -1.036971  0.739188
  N    -1.088305  2.110235  0.855178
  N    -2.254397 -0.836701  4.612688
  N    -2.201339  3.080935  4.450810
  S    -3.124880 -1.005495  3.229315
  S    -2.825710  2.292683  3.126081
  S    -0.192952 -0.777125  0.347691
  S     0.365178  2.809160  0.490136
  S    -0.695896 -0.256115  4.351959
  S    -0.720039  3.733457  4.316772
