16  
    
  C     3.425552  1.490255  3.620897
  C     3.055679  5.285174  3.419817
  C     2.178427  1.032348  3.116276
  C     1.936438  4.617842  2.734870
  N     4.286667  1.670186  2.630886
  N     4.092805  5.497005  2.622989
  N     2.136907  0.827719  1.815483
  N     2.136064  4.272131  1.507695
  N     1.825769  1.320714  5.630046
  N     1.233484  4.796875  5.169321
  S     0.870032  0.983781  4.282507
  S     0.605750  4.239951  3.725504
  S     3.589956  1.295649  1.210377
  S     3.589680  4.924328  1.101196
  S     3.389548  1.869997  5.292066
  S     2.734477  5.475924  5.057650
