16  
    
  C    -4.882397 -2.465692  1.889827
  C    -5.225381  1.057728  1.804559
  C    -6.020982 -3.066163  1.271270
  C    -6.429818  0.612565  1.192369
  N    -3.809910 -2.318034  1.107158
  N    -4.210068  1.282469  0.952649
  N    -5.866819 -3.146120 -0.041346
  N    -6.218421  0.230433 -0.055611
  N    -6.717716 -2.675565  3.702556
  N    -7.066925  1.030175  3.583796
  S    -7.426585 -3.276381  2.325854
  S    -7.807697  0.447774  2.200022
  S    -4.340234 -2.721152 -0.423452
  S    -4.722682  0.765910 -0.512033
  S    -5.069895 -2.325020  3.610195
  S    -5.386071  1.352234  3.511833
