16  
    
  C     1.051165  0.247065  3.001722
  C     0.584979  3.690650  2.950192
  C    -0.150029 -0.080948  2.226761
  C    -0.558378  3.109814  2.169735
  N     2.096313  0.525901  2.259963
  N     1.570775  4.240032  2.226214
  N     0.083223 -0.127299  0.918057
  N    -0.221385  2.899397  0.906985
  N    -0.821791 -0.208227  4.747336
  N    -1.499504  3.153755  4.483562
  S    -1.544789 -0.341778  3.297188
  S    -1.956775  2.572796  3.054050
  S     1.674087  0.324574  0.605255
  S     1.275829  3.664520  0.618557
  S     0.832134  0.225578  4.789378
  S     0.070019  3.749142  4.593116
