16  
    
  C    -1.291030 -0.931871  2.056717
  C    -1.573622  3.324115  2.001503
  C    -2.509770 -1.359686  1.435086
  C    -2.546323  2.417643  1.399810
  N    -0.421427 -0.551482  1.162159
  N    -0.546376  3.600011  1.179619
  N    -2.453395 -1.558124  0.131550
  N    -2.320103  2.172198  0.096438
  N    -2.943499 -1.036965  4.020903
  N    -3.215664  2.699823  3.873652
  S    -3.778728 -1.566256  2.687755
  S    -3.880990  2.070807  2.449541
  S    -0.969507 -1.011875 -0.325750
  S    -0.957644  3.012824 -0.323441
  S    -1.363787 -0.713193  3.826528
  S    -1.715523  3.419706  3.674764
