16  
    
  C    -4.745119 -2.723658  1.503540
  C    -4.656962  0.793680  1.413072
  C    -6.015001 -3.056960  0.944848
  C    -5.910340  0.639070  0.751464
  N    -3.731161 -2.739500  0.658326
  N    -3.591864  1.020216  0.633311
  N    -6.002832 -3.125464 -0.400468
  N    -5.742271  0.739404 -0.579721
  N    -6.399998 -2.580186  3.505339
  N    -6.517338  0.826231  3.236327
  S    -7.279318 -2.988936  2.139557
  S    -7.363619  0.675175  1.775465
  S    -4.400952 -2.918271 -0.877005
  S    -4.205683  0.981331 -0.889555
  S    -4.719778 -2.474468  3.268523
  S    -4.847427  1.071286  3.089032
