16  
    
  C    -0.167702 -0.185926  2.552546
  C    -0.024338  3.795929  2.369143
  C    -1.446520 -0.604223  2.011896
  C    -1.204730  3.146100  1.820253
  N     0.736037 -0.048158  1.632888
  N     1.048822  3.716170  1.541376
  N    -1.471021 -0.739477  0.703237
  N    -1.138221  2.866111  0.491841
  N    -1.731709 -0.321189  4.601725
  N    -1.723936  3.496142  4.304286
  S    -2.624458 -0.690046  3.268656
  S    -2.521747  3.030826  2.927623
  S     0.095328 -0.375697  0.102586
  S     0.371321  3.277974  0.046894
  S    -0.107334 -0.104525  4.306497
  S    -0.104728  3.976662  4.143449
