16  
    
  C    -5.756860 -2.983140  1.368671
  C    -5.935983  0.798409  1.537357
  C    -6.910545 -3.618674  0.770048
  C    -7.098933  0.182425  0.929929
  N    -4.804685 -2.669474  0.503998
  N    -5.069416  1.258604  0.622432
  N    -6.774599 -3.806592 -0.521039
  N    -7.022165  0.052719 -0.404174
  N    -7.451914 -3.350580  3.268517
  N    -7.479922  0.274635  3.511444
  S    -8.191904 -3.928014  1.863619
  S    -8.346954 -0.201351  2.063197
  S    -5.356433 -3.112582 -0.984505
  S    -5.646214  0.815242 -0.829634
  S    -5.858758 -2.825563  3.081141
  S    -6.016536  1.096655  3.256152
