16  
    
  C     0.866710  0.232974  2.855386
  C     0.534593  3.669521  2.946249
  C    -0.329064 -0.324334  2.261336
  C    -0.780315  3.491273  2.414323
  N     1.913181  0.361266  2.011464
  N     1.482698  3.947325  2.031759
  N    -0.288535 -0.484227  0.936904
  N    -0.897358  3.751285  1.127858
  N    -0.856947  0.043845  4.828905
  N    -1.118276  3.359954  4.937949
  S    -1.671388 -0.172109  3.405441
  S    -2.096235  3.336334  3.569362
  S     1.294516 -0.051365  0.503757
  S     0.714067  3.865976  0.551106
  S     0.731344  0.371063  4.649335
  S     0.518581  3.428737  4.671559
