16  
    
  C    -0.264384 -0.604387  2.621018
  C    -0.342983  3.308884  2.642972
  C    -1.443932 -1.117577  2.123643
  C    -1.572508  2.697413  2.061634
  N     0.785649 -0.730706  1.786804
  N     0.720167  3.349579  1.861167
  N    -1.413114 -1.357570  0.780694
  N    -1.414974  2.426708  0.771277
  N    -1.856720 -0.645009  4.595750
  N    -2.059471  2.869371  4.635542
  S    -2.708591 -1.237807  3.320403
  S    -2.860106  2.474345  3.185421
  S     0.145085 -1.253093  0.372461
  S     0.095541  2.956644  0.328993
  S    -0.292439 -0.313076  4.319922
  S    -0.513256  3.482141  4.348917
