16  
    
  C     0.801384  0.311038  2.881059
  C     0.684218  3.579092  2.721273
  C    -0.460065 -0.218576  2.327771
  C    -0.667256  3.446036  2.149535
  N     1.715478  0.566586  1.985578
  N     1.609754  3.893224  1.827136
  N    -0.326285 -0.473804  1.032682
  N    -0.620852  3.283389  0.815730
  N    -0.904172  0.125343  4.865907
  N    -0.917372  3.301579  4.728172
  S    -1.735184 -0.281907  3.490008
  S    -1.954628  3.137999  3.377672
  S     1.123700  0.074602  0.492121
  S     0.893183  3.713775  0.357525
  S     0.662602  0.596334  4.589538
  S     0.645672  3.508527  4.427466
