16  
    
  C     1.106660  0.036723  2.947566
  C     0.861703  3.814250  2.989979
  C    -0.168545 -0.422895  2.472829
  C    -0.382483  3.266226  2.434354
  N     1.999512  0.203167  1.955847
  N     1.864445  3.828891  2.081278
  N    -0.273002 -0.578039  1.168675
  N    -0.437318  3.221291  1.083433
  N    -0.427940 -0.105463  5.100899
  N    -0.675924  3.744472  4.986651
  S    -1.342207 -0.514026  3.748183
  S    -1.613326  3.350281  3.632014
  S     1.236240 -0.193834  0.519742
  S     1.186782  3.406035  0.602119
  S     1.086305  0.302551  4.634831
  S     0.871476  4.164220  4.668235
