16  
    
  C    -1.386320 -0.387008  1.904178
  C    -1.215508  3.300162  2.158096
  C    -2.598503 -1.200943  1.554674
  C    -2.449683  2.790786  1.632388
  N    -0.456574 -0.267368  0.968869
  N    -0.371465  3.690287  1.209116
  N    -2.546235 -1.482865  0.283406
  N    -2.433500  2.564123  0.303650
  N    -2.855944 -0.687323  4.049233
  N    -2.682795  2.924786  4.183614
  S    -3.826911 -1.178610  2.765673
  S    -3.633979  2.543404  2.905015
  S    -1.144065 -0.928924 -0.362997
  S    -0.934128  3.069612 -0.223694
  S    -1.300376 -0.154416  3.592159
  S    -1.112245  3.339921  3.897482
