16  
    
  C    -4.668547 -2.487755  1.710365
  C    -4.835202  1.164221  1.596863
  C    -5.959271 -2.901548  1.171216
  C    -5.955734  0.499700  1.001428
  N    -3.759897 -2.228532  0.784465
  N    -3.823762  1.408727  0.778891
  N    -5.909689 -3.128955 -0.127487
  N    -5.751815  0.290726 -0.280635
  N    -6.348108 -2.688434  3.646067
  N    -6.660232  0.844592  3.389144
  S    -7.228575 -3.100501  2.329599
  S    -7.316412  0.148224  2.050459
  S    -4.483398 -2.589128 -0.674822
  S    -4.246451  0.877459 -0.730821
  S    -4.789232 -2.142768  3.414926
  S    -5.102573  1.393770  3.335308
