16  
    
  C    -1.363780 -0.316226  2.049181
  C    -1.144531  3.056617  2.194734
  C    -2.491788 -0.979762  1.539505
  C    -2.511549  2.864538  1.691735
  N    -0.349440 -0.200264  1.156079
  N    -0.206987  3.248789  1.272127
  N    -2.462632 -1.222680  0.240727
  N    -2.485503  2.626117  0.391781
  N    -2.946577 -0.731248  4.114273
  N    -2.767976  2.991363  4.216373
  S    -3.744317 -1.257862  2.746040
  S    -3.711165  2.678260  2.900043
  S    -0.924436 -0.864684 -0.243462
  S    -0.978418  3.019966 -0.177573
  S    -1.354642 -0.160286  3.855858
  S    -1.162853  3.326557  3.953061
