16  
    
  C    -1.385751 -0.923479  2.283861
  C    -1.524313  2.897045  2.003943
  C    -2.515891 -1.403910  1.496113
  C    -2.619175  2.282214  1.345632
  N    -0.280014 -0.784081  1.532049
  N    -0.458942  3.153038  1.234026
  N    -2.377016 -1.345438  0.149702
  N    -2.391055  1.979753  0.064447
  N    -3.196080 -1.390889  4.024280
  N    -3.298702  2.435724  3.801550
  S    -3.896039 -1.639225  2.530804
  S    -3.875444  1.674624  2.447886
  S    -0.711522 -1.015409 -0.064230
  S    -0.917255  2.653466 -0.281525
  S    -1.627935 -0.766860  3.960909
  S    -1.916020  3.322163  3.647676
