16  
    
  C    -4.657743 -2.858022  1.509324
  C    -4.690307  1.012028  1.429594
  C    -5.966333 -3.011115  0.954263
  C    -5.928877  0.840761  0.710553
  N    -3.687973 -2.703156  0.628089
  N    -3.621906  1.075512  0.668849
  N    -6.002091 -3.122029 -0.381931
  N    -5.844509  0.710709 -0.642855
  N    -6.377869 -2.685902  3.436672
  N    -6.474898  0.762254  3.269805
  S    -7.320896 -2.954369  2.090701
  S    -7.249850  0.702520  1.859613
  S    -4.427326 -2.802678 -0.838180
  S    -4.119942  0.944891 -0.919490
  S    -4.772255 -2.473253  3.174717
  S    -4.843105  0.965159  3.200810
