16  
    
  C     1.675339  0.830272  3.267986
  C     1.989968  4.472475  3.283294
  C     0.635255  0.189422  2.519361
  C     0.740340  4.174386  2.639013
  N     2.740684  1.222959  2.550085
  N     3.040884  4.682555  2.481888
  N     0.891431 -0.005130  1.216312
  N     0.867464  3.879009  1.327444
  N    -0.329062  0.350929  4.921876
  N     0.410240  4.195526  5.169310
  S    -0.769212 -0.233287  3.449288
  S    -0.376468  3.685409  3.816579
  S     2.384862  0.662464  1.018433
  S     2.449203  4.426192  0.918583
  S     1.344782  0.810362  4.945044
  S     1.832080  4.882842  4.979478
