16  
    
  C     2.216412  1.033164  3.474946
  C     2.122029  4.927566  3.164921
  C     0.956006  0.649886  2.898016
  C     0.900758  4.470437  2.478041
  N     3.196930  1.137170  2.560663
  N     3.087053  5.283514  2.341030
  N     0.956039  0.561552  1.581926
  N     0.965675  4.450203  1.150662
  N     0.503829  1.017460  5.399967
  N     0.398157  4.382769  4.936598
  S    -0.342621  0.446577  3.991925
  S    -0.434315  4.103040  3.559669
  S     2.553107  0.905151  1.083163
  S     2.565351  4.895697  0.811333
  S     2.130771  1.354490  5.179081
  S     2.057953  4.706651  4.925028
