16  
    
  C    -3.519832 -2.389435  1.947344
  C    -3.704107  1.974157  1.848350
  C    -4.624081 -2.956969  1.247686
  C    -4.691244  1.072206  1.281730
  N    -2.498907 -2.222728  1.145764
  N    -2.737393  2.335972  1.004506
  N    -4.390284 -3.296974 -0.029025
  N    -4.409168  0.754112  0.027896
  N    -5.365200 -2.479237  3.617903
  N    -5.456215  1.375100  3.772510
  S    -5.991723 -3.299365  2.262301
  S    -5.932236  0.566029  2.413575
  S    -2.856662 -2.794254 -0.339663
  S    -2.987325  1.523065 -0.407412
  S    -3.768931 -2.098094  3.614253
  S    -4.096299  2.294515  3.518880
