16  
    
  C     0.824008  0.460868  3.019908
  C     0.532569  3.934092  2.936058
  C    -0.411751 -0.003396  2.387654
  C    -0.719242  3.486696  2.358679
  N     1.881593  0.425800  2.189466
  N     1.516970  3.817868  2.051101
  N    -0.311091 -0.168027  1.091041
  N    -0.711950  3.105059  1.105512
  N    -0.967967  0.257484  4.890056
  N    -1.112784  3.763886  4.962719
  S    -1.798300  0.082914  3.467293
  S    -1.950319  3.311202  3.565914
  S     1.287657  0.100306  0.645459
  S     0.863134  3.395555  0.613346
  S     0.636952  0.687358  4.756494
  S     0.470109  4.113207  4.703164
