16  
    
  C    -2.843554 -1.563544  2.000648
  C    -2.401739  2.000757  2.022688
  C    -4.069512 -2.128779  1.451158
  C    -3.742052  1.948288  1.440256
  N    -1.881171 -1.331781  1.086435
  N    -1.404736  1.953595  1.122307
  N    -4.057494 -2.137318  0.108861
  N    -3.736409  1.624837  0.148909
  N    -4.557753 -2.033335  3.905320
  N    -4.060154  2.206307  3.911901
  S    -5.320466 -2.554375  2.543886
  S    -5.006645  2.112891  2.562924
  S    -2.549730 -1.617047 -0.399219
  S    -2.117560  1.592228 -0.308353
  S    -2.945199 -1.594595  3.759683
  S    -2.426882  2.376681  3.769712
