16  
    
  C     2.930603  1.494077  3.468124
  C     2.839309  5.172494  3.173909
  C     1.782237  0.893046  2.831633
  C     1.723787  4.463207  2.618436
  N     3.897166  1.841413  2.625035
  N     3.843314  5.350156  2.348398
  N     1.870468  0.723730  1.532398
  N     1.846666  4.188821  1.329253
  N     1.155445  1.457807  5.245899
  N     1.262162  4.902648  5.119483
  S     0.432960  0.712535  3.948285
  S     0.519955  4.166026  3.873970
  S     3.305801  1.350531  1.060617
  S     3.277276  4.855337  0.861656
  S     2.803001  1.721822  5.189107
  S     2.817982  5.476568  4.876003
