16  
    
  C     2.363361  0.865488  3.518489
  C     1.958273  4.942199  3.049379
  C     1.065174  0.699865  2.938000
  C     0.801169  4.383852  2.349543
  N     3.336862  0.859245  2.610027
  N     2.975821  5.319872  2.227041
  N     1.022825  0.570274  1.608004
  N     1.091179  3.925544  1.125179
  N     0.607996  0.954848  5.397015
  N     0.142344  4.441277  4.917444
  S    -0.187350  0.563477  4.040586
  S    -0.539201  4.166876  3.370341
  S     2.647271  0.603859  1.120955
  S     2.529870  4.716629  0.704865
  S     2.268933  1.049751  5.278609
  S     1.691425  5.136495  4.781653
