16  
    
  C     3.163852  1.531977  3.319375
  C     3.119370  4.849768  3.413358
  C     1.885343  1.194685  2.713412
  C     1.881013  4.706175  2.694137
  N     4.193481  1.653571  2.495530
  N     4.160179  5.155884  2.646319
  N     1.959383  1.013474  1.391086
  N     2.056274  4.604893  1.369481
  N     1.309660  1.651576  5.191754
  N     1.213628  5.011879  5.149297
  S     0.532990  1.439569  3.735266
  S     0.495618  4.669609  3.685115
  S     3.495820  1.268286  0.913536
  S     3.628910  4.870864  1.083990
  S     2.970080  1.782824  5.006020
  S     2.856708  5.274483  5.047613
