16  
    
  C     1.992338  1.154298  3.016800
  C     2.279875  4.416039  3.062741
  C     0.800122  0.611396  2.428681
  C     1.136095  3.968083  2.341267
  N     3.013316  1.297414  2.166686
  N     3.400073  4.445055  2.321655
  N     0.902307  0.249080  1.163355
  N     1.269901  3.720073  1.029303
  N     0.199078  1.105521  4.980879
  N     0.259158  4.392191  4.645801
  S    -0.535454  0.571075  3.470039
  S    -0.363275  3.854997  3.269959
  S     2.473020  0.702641  0.678129
  S     2.890090  3.957510  0.790929
  S     1.833191  1.319296  4.745322
  S     1.856062  4.600136  4.735636
