16  
    
  C    -5.381620 -2.846477  1.455665
  C    -5.503780  1.110726  1.329735
  C    -6.550970 -3.422295  0.847952
  C    -6.646344  0.615385  0.641138
  N    -4.359594 -2.633085  0.657184
  N    -4.482907  1.403231  0.511098
  N    -6.476192 -3.362030 -0.492207
  N    -6.480669  0.448588 -0.659410
  N    -7.104038 -2.935655  3.351078
  N    -7.349979  0.661394  3.114268
  S    -7.799148 -3.597367  2.008392
  S    -7.937137  0.013399  1.686621
  S    -4.947499 -2.895933 -0.831557
  S    -4.968456  0.987180 -0.990884
  S    -5.454860 -2.684781  3.132894
  S    -5.714371  1.109935  3.011070
