16  
    
  C    -1.412522 -1.046881  2.417917
  C    -1.562342  2.805892  2.112048
  C    -2.527409 -1.497483  1.644195
  C    -2.522392  1.910995  1.535132
  N    -0.330892 -0.608267  1.771101
  N    -0.445195  3.058739  1.373902
  N    -2.222069 -1.650192  0.355967
  N    -2.263608  1.614872  0.245535
  N    -3.409439 -1.404302  4.040492
  N    -3.405694  2.470697  3.886063
  S    -3.971594 -1.835440  2.567629
  S    -3.928665  1.669950  2.487047
  S    -0.652344 -1.050013  0.182182
  S    -0.816625  2.387465 -0.104724
  S    -1.800634 -1.020765  4.146074
  S    -1.813756  3.016170  3.888728
