16  
    
  C     2.093004  0.821647  3.080487
  C     2.147857  4.442528  3.049482
  C     0.783116  0.677318  2.442058
  C     0.965056  4.014491  2.344797
  N     3.117305  0.566554  2.294590
  N     3.190003  4.668291  2.228159
  N     0.871181  0.422576  1.140036
  N     1.213672  3.565682  1.108053
  N     0.251954  1.074475  4.973657
  N     0.301195  4.443780  4.754726
  S    -0.531556  0.557938  3.552618
  S    -0.411069  3.970039  3.312686
  S     2.421230  0.218841  0.831987
  S     2.753076  4.027397  0.740171
  S     1.967485  1.161583  4.770567
  S     1.876894  4.816605  4.772921
