16  
    
  C     2.696451  1.360117  3.679065
  C     2.898615  5.290545  3.588370
  C     1.483140  0.904357  2.996635
  C     1.730182  4.825560  2.849959
  N     3.761238  1.573657  2.918133
  N     4.001637  5.452682  2.858280
  N     1.643250  0.740771  1.673626
  N     1.934905  4.920301  1.531863
  N     1.028010  1.133613  5.559524
  N     1.112878  4.699403  5.403736
  S     0.188716  0.748253  4.170798
  S     0.296411  4.766860  3.965976
  S     3.175818  1.204279  1.306340
  S     3.542890  5.199354  1.243724
  S     2.672864  1.536959  5.419458
  S     2.675888  5.339951  5.334777
