16  
    
  C    -5.051001 -2.575479  1.929712
  C    -5.447843  1.188914  1.627259
  C    -6.298966 -2.852591  1.296907
  C    -6.693233  0.968173  0.933999
  N    -3.994448 -2.513675  1.084076
  N    -4.377381  1.107279  0.846525
  N    -6.206293 -3.273549  0.030757
  N    -6.687517  0.749659 -0.397938
  N    -6.827679 -2.422022  3.795928
  N    -7.197121  1.071421  3.470270
  S    -7.659810 -2.738974  2.400794
  S    -7.993240  0.793796  2.109078
  S    -4.564749 -3.098027 -0.339360
  S    -4.989773  0.770802 -0.711107
  S    -5.199958 -2.175752  3.598114
  S    -5.562687  1.253852  3.415188
