16  
    
  C     3.193077  1.622613  3.627447
  C     3.114063  5.221061  3.414165
  C     1.996042  1.142568  3.034853
  C     1.991912  4.491050  2.770398
  N     4.206758  1.655212  2.776201
  N     4.185207  5.341266  2.649065
  N     2.124013  0.824371  1.764467
  N     2.139198  4.394055  1.452050
  N     1.451246  1.452034  5.472692
  N     1.324659  4.832197  5.159514
  S     0.705031  1.044791  4.078379
  S     0.656821  4.226235  3.720044
  S     3.696377  1.102387  1.375763
  S     3.699702  4.919095  1.098293
  S     2.963025  2.061191  5.346072
  S     2.883625  5.368773  5.109379
