16  
    
  C    -3.139811 -1.757671  1.815876
  C    -3.563689  1.598850  2.069059
  C    -4.349808 -2.377070  1.304120
  C    -4.723810  1.132858  1.358878
  N    -2.075429 -1.640643  1.022085
  N    -2.456077  1.765055  1.371309
  N    -4.246021 -2.656283  0.011419
  N    -4.431250  0.770846  0.114650
  N    -4.775202 -2.037699  3.792337
  N    -5.499891  1.432069  3.877347
  S    -5.549953 -2.664583  2.472720
  S    -6.117829  1.012525  2.385565
  S    -2.705157 -2.242651 -0.438670
  S    -2.818146  1.214053 -0.177278
  S    -3.243317 -1.458009  3.522972
  S    -3.910274  1.925336  3.761609
