16  
    
  C    -1.952575 -1.140699  2.133723
  C    -2.457062  2.532401  1.991275
  C    -3.129695 -1.587828  1.494811
  C    -3.727647  2.039139  1.411455
  N    -0.914098 -0.903271  1.321956
  N    -1.484064  2.504396  1.099973
  N    -3.017915 -1.712221  0.159615
  N    -3.701426  1.874813  0.086212
  N    -3.733893 -1.325418  3.958015
  N    -4.137489  2.444704  3.965512
  S    -4.439198 -1.968007  2.604727
  S    -4.981107  1.994877  2.616398
  S    -1.469129 -1.276925 -0.203761
  S    -2.124165  2.188816 -0.371481
  S    -2.123069 -0.841356  3.769641
  S    -2.566215  2.940937  3.683975
