16  
    
  C    -2.664265 -1.413988  2.160332
  C    -2.573097  2.327389  2.247694
  C    -3.929559 -1.815344  1.510938
  C    -3.765952  1.895944  1.570480
  N    -1.673722 -1.205830  1.334909
  N    -1.583816  2.714702  1.448379
  N    -3.783412 -1.956203  0.210267
  N    -3.627893  1.823595  0.266859
  N    -4.405707 -1.495266  4.075097
  N    -4.257785  1.908526  4.090361
  S    -5.255551 -2.058233  2.731306
  S    -5.058523  1.634528  2.667382
  S    -2.221841 -1.532351 -0.190794
  S    -2.062693  2.373888 -0.047798
  S    -2.787824 -1.309011  3.854749
  S    -2.676961  2.411019  3.986308
