16  
    
  C    -0.867968 -0.754290  2.437198
  C    -1.053799  3.111319  2.436863
  C    -2.009246 -1.153911  1.768569
  C    -2.318380  2.711643  1.796289
  N     0.217531 -0.476705  1.665436
  N     0.059608  3.079977  1.678625
  N    -1.840219 -1.251931  0.458282
  N    -2.165012  2.659564  0.460215
  N    -2.653217 -1.185487  4.241236
  N    -2.843595  3.219479  4.277866
  S    -3.366901 -1.551791  2.806569
  S    -3.648113  2.905782  2.872006
  S    -0.336451 -0.734248  0.138653
  S    -0.513980  2.688786  0.158419
  S    -1.097666 -0.561150  4.171692
  S    -1.206470  3.372512  4.164535
