16  
    
  C     2.543472  1.130906  3.250109
  C     2.552059  4.650744  3.538435
  C     1.323060  0.810403  2.497370
  C     1.341009  4.366197  2.766893
  N     3.597706  1.295325  2.481843
  N     3.536197  5.040831  2.743949
  N     1.431057  0.820861  1.155243
  N     1.476305  4.307399  1.456390
  N     0.672795  0.781070  5.011522
  N     0.532773  4.427087  5.168482
  S     0.034697  0.288038  3.507586
  S    -0.009411  3.928043  3.746544
  S     3.038066  1.112224  0.848146
  S     3.055915  4.741238  1.121759
  S     2.332361  0.957237  4.996075
  S     2.114446  4.959728  5.240602
