16  
    
  C    -0.201770 -0.356703  2.731872
  C     0.182476  3.478340  2.357436
  C    -1.283356 -0.965839  1.970001
  C    -1.022462  3.020738  1.717104
  N     0.895575 -0.135600  2.015991
  N     1.179684  3.653828  1.502492
  N    -1.068723 -0.963861  0.643617
  N    -0.946588  2.933566  0.404935
  N    -2.149040 -0.648339  4.472991
  N    -1.508294  2.828111  4.183800
  S    -2.758509 -1.018084  2.979531
  S    -2.372729  2.761770  2.806203
  S     0.502767 -0.465513  0.464020
  S     0.592881  3.478183 -0.023206
  S    -0.518762 -0.253895  4.524747
  S     0.062449  3.414403  4.041180
