16  
    
  C    -4.246447 -2.225371  1.625634
  C    -4.226006  1.686443  1.887994
  C    -5.495455 -2.592958  1.021509
  C    -5.443478  1.156327  1.283102
  N    -3.162277 -2.248262  0.812849
  N    -3.148245  1.691872  1.091889
  N    -5.403337 -2.876327 -0.261078
  N    -5.249262  0.668287  0.055859
  N    -5.969682 -1.998316  3.560017
  N    -6.051793  1.468973  3.770789
  S    -6.760951 -2.677091  2.226141
  S    -6.793687  0.996138  2.351946
  S    -3.743045 -2.759796 -0.657585
  S    -3.629100  0.966636 -0.277490
  S    -4.335347 -1.792530  3.376998
  S    -4.542988  2.168927  3.497264
