16  
    
  C    -1.362277 -1.007387  2.275748
  C    -1.577348  2.867008  2.025144
  C    -2.516673 -1.295292  1.547250
  C    -2.609990  2.119618  1.334837
  N    -0.220533 -0.730206  1.558812
  N    -0.542232  3.105945  1.281342
  N    -2.249357 -1.436972  0.233204
  N    -2.373795  1.910586  0.055308
  N    -3.246852 -1.509963  4.058533
  N    -3.304572  2.386715  3.826476
  S    -3.967287 -1.658436  2.545708
  S    -3.868145  1.641228  2.440885
  S    -0.682481 -1.020436 -0.011177
  S    -0.864676  2.546282 -0.258013
  S    -1.734158 -0.818055  3.983568
  S    -1.886353  3.260219  3.697801
