16  
    
  C     2.145881  1.239219  3.411240
  C     2.281755  4.481951  3.216263
  C     0.929269  0.784718  2.729305
  C     0.989615  4.345938  2.599417
  N     3.201757  1.498920  2.661236
  N     3.199730  4.983285  2.381024
  N     1.141959  0.649448  1.412108
  N     1.058910  4.466837  1.259911
  N     0.509649  0.775344  5.236450
  N     0.613809  4.253756  5.185269
  S    -0.364064  0.477893  3.918049
  S    -0.267177  3.873881  3.697766
  S     2.701100  1.084221  1.119254
  S     2.583737  4.914058  0.850744
  S     2.140227  1.194518  5.146316
  S     2.222554  4.767981  4.924953
