16  
    
  C    -2.992883 -1.631732  2.290184
  C    -3.325596  1.787386  2.035536
  C    -4.252347 -1.933721  1.653679
  C    -4.606876  1.488099  1.444653
  N    -1.987344 -1.663259  1.410700
  N    -2.435692  2.017894  1.079449
  N    -4.212814 -1.897983  0.326288
  N    -4.613156  1.288828  0.123948
  N    -4.804119 -1.888318  4.081962
  N    -4.913093  1.340500  4.086016
  S    -5.643512 -1.860631  2.670185
  S    -5.813389  1.054679  2.691225
  S    -2.619322 -1.891507 -0.077938
  S    -3.116055  1.737617 -0.421811
  S    -3.132844 -1.642308  4.024908
  S    -3.303229  1.893824  3.822172
