16  
    
  C     2.543056  1.119802  3.257261
  C     3.011969  5.338118  3.841325
  C     1.371211  0.522382  2.627646
  C     1.714218  5.083376  3.292550
  N     3.584214  1.311059  2.464268
  N     3.983709  5.125105  2.956000
  N     1.505938  0.297591  1.334233
  N     1.702064  4.622664  2.045166
  N     0.621623  0.719889  5.058202
  N     1.253997  5.644358  5.801366
  S    -0.030415  0.337075  3.604374
  S     0.392293  5.343860  4.415316
  S     3.034465  0.773303  0.929949
  S     3.286158  4.757418  1.498986
  S     2.190091  1.341368  4.964620
  S     2.895053  5.832189  5.581782
