16  
    
  C    -4.841312 -2.468603  1.894709
  C    -5.212678  1.154772  1.810266
  C    -5.973088 -3.091328  1.261218
  C    -6.402932  0.591334  1.158910
  N    -3.804885 -2.273828  1.064274
  N    -4.197330  1.307675  0.995287
  N    -5.867318 -3.137520 -0.050738
  N    -6.242512  0.198863 -0.075770
  N    -6.712275 -2.763793  3.765792
  N    -7.056685  1.023252  3.635306
  S    -7.400959 -3.263053  2.331152
  S    -7.745019  0.417287  2.178795
  S    -4.334133 -2.687026 -0.449640
  S    -4.681087  0.738826 -0.500853
  S    -5.088199 -2.306132  3.591384
  S    -5.356204  1.358073  3.523993
