16  
    
  C    -5.830803 -3.095637  1.512943
  C    -6.073496  0.776240  1.366481
  C    -6.986021 -3.407978  0.708075
  C    -7.290907  0.404257  0.712189
  N    -4.704950 -2.921527  0.844938
  N    -5.124190  1.176021  0.545526
  N    -6.794220 -3.608416 -0.594112
  N    -7.196919  0.338697 -0.578958
  N    -7.824865 -3.206100  3.159451
  N    -7.730626  0.235945  3.226235
  S    -8.428023 -3.395852  1.645892
  S    -8.544467  0.068939  1.761439
  S    -5.153013 -3.243307 -0.771449
  S    -5.650771  0.869620 -0.996843
  S    -6.119734 -3.017940  3.170296
  S    -6.106636  0.757540  3.054877
