16  
    
  C    -1.165128 -0.577307  2.268646
  C    -1.187740  3.036078  2.308651
  C    -2.305014 -1.161012  1.642488
  C    -2.519372  2.895137  1.712370
  N    -0.113862 -0.348619  1.533283
  N    -0.166817  2.941727  1.456383
  N    -2.272774 -1.042430  0.317135
  N    -2.437593  2.690604  0.399631
  N    -2.923658 -0.814313  4.188365
  N    -2.875560  3.188737  4.201253
  S    -3.603880 -1.405494  2.746215
  S    -3.801951  2.814021  2.889672
  S    -0.672746 -0.508327 -0.061792
  S    -0.840961  2.806682 -0.038872
  S    -1.371565 -0.209929  4.018156
  S    -1.261081  3.258736  4.000754
