16  
    
  C     0.077919 -0.648366  2.432058
  C    -0.221473  3.159973  2.670168
  C    -1.203889 -0.912014  1.870015
  C    -1.417137  2.530614  2.054322
  N     1.093020 -0.564523  1.582786
  N     0.713738  3.282804  1.731004
  N    -1.208759 -1.147257  0.590186
  N    -1.437221  2.578363  0.718985
  N    -1.692140 -0.797381  4.392817
  N    -1.904284  2.869957  4.585019
  S    -2.521634 -1.256207  3.049774
  S    -2.679802  2.300475  3.172172
  S     0.405071 -0.904271  0.083909
  S     0.112665  2.925987  0.247488
  S    -0.080383 -0.358703  4.165823
  S    -0.349743  3.473010  4.376263
