16  
    
  C     1.057135  0.222971  3.012365
  C     0.533448  3.750645  2.916956
  C    -0.173448 -0.081613  2.235973
  C    -0.520640  3.088258  2.162177
  N     2.089543  0.545623  2.236360
  N     1.603588  4.174518  2.214460
  N     0.101361 -0.127441  0.908089
  N    -0.227206  2.886914  0.881971
  N    -0.800287 -0.224718  4.738443
  N    -1.491530  3.153356  4.478263
  S    -1.555113 -0.356977  3.300045
  S    -1.981806  2.595901  3.052192
  S     1.651804  0.356687  0.589111
  S     1.244119  3.656716  0.600016
  S     0.814817  0.218596  4.774367
  S     0.096371  3.742888  4.583687
