16  
    
  C     2.183737  1.062132  3.445702
  C     2.060606  5.038006  3.131675
  C     0.900851  0.676815  2.865125
  C     0.886570  4.460287  2.462402
  N     3.203244  1.189173  2.632585
  N     3.129965  5.297008  2.371029
  N     0.979863  0.494757  1.561385
  N     1.038343  4.478775  1.138044
  N     0.485274  1.043408  5.403920
  N     0.371209  4.408592  4.955800
  S    -0.374526  0.479535  4.081043
  S    -0.507845  4.142710  3.543582
  S     2.573318  0.823796  1.112034
  S     2.609623  4.908224  0.823127
  S     2.201887  1.279367  5.132072
  S     1.945610  4.771950  4.868048
