16  
    
  C    -1.003688 -0.715582  2.209982
  C    -0.779594  2.958813  2.498165
  C    -2.181677 -1.361406  1.675662
  C    -1.976172  2.525503  1.876615
  N     0.095473 -0.697093  1.461150
  N     0.286017  2.966268  1.720416
  N    -2.038488 -1.688330  0.410809
  N    -1.858674  2.477388  0.557376
  N    -2.896233 -0.649605  4.043044
  N    -2.471200  2.825402  4.341210
  S    -3.530046 -1.602356  2.785612
  S    -3.302662  2.421893  3.017204
  S    -0.411891 -1.330510  0.000789
  S    -0.259230  2.723759  0.204166
  S    -1.270536 -0.257785  3.864252
  S    -0.932414  3.275783  4.208219
