16  
    
  C    -1.315383 -0.979853  2.207635
  C    -1.546135  3.008479  1.981351
  C    -2.574551 -1.283950  1.473692
  C    -2.583108  2.192628  1.393713
  N    -0.278172 -0.739667  1.420371
  N    -0.460987  3.289054  1.207063
  N    -2.365344 -1.402570  0.173022
  N    -2.436447  2.139559  0.062649
  N    -3.131801 -1.179357  3.963637
  N    -3.323780  2.528077  3.835469
  S    -3.843486 -1.660387  2.532559
  S    -3.861272  1.781306  2.431013
  S    -0.817723 -0.999901 -0.102519
  S    -0.934576  2.744119 -0.318808
  S    -1.533897 -0.760406  3.933929
  S    -1.896364  3.365953  3.645135
