16  
    
  C     3.121898  1.484283  3.333854
  C     3.133988  4.996926  3.407537
  C     1.895221  1.152833  2.671122
  C     1.939646  4.636885  2.703097
  N     4.154431  1.627836  2.502478
  N     4.185565  5.117188  2.599668
  N     1.918803  0.978778  1.352142
  N     2.038599  4.593593  1.396213
  N     1.276228  1.661847  5.183525
  N     1.183985  5.025049  5.089317
  S     0.523858  1.370053  3.721577
  S     0.476788  4.675574  3.615055
  S     3.467457  1.345293  0.955712
  S     3.617638  4.875076  1.077300
  S     2.943461  1.731632  5.037093
  S     2.835618  5.265912  5.072149
