16  
    
  C     1.172486  0.193040  2.992519
  C     0.650928  3.898184  3.176421
  C    -0.052661 -0.418044  2.423795
  C    -0.478812  3.303417  2.500621
  N     2.120716  0.311739  2.077479
  N     1.795057  4.048995  2.482989
  N     0.064979 -0.792795  1.179344
  N    -0.356198  3.322377  1.199549
  N    -0.519956  0.207219  4.892785
  N    -1.059743  3.210764  4.986064
  S    -1.340076 -0.497425  3.607391
  S    -1.888146  2.943797  3.495058
  S     1.570160 -0.323052  0.615811
  S     1.241176  3.802241  0.872530
  S     1.096297  0.616633  4.698433
  S     0.520848  3.621260  4.862708
