16  
    
  C    -0.004177  0.054638  2.627942
  C     0.021394  3.613058  2.577110
  C    -1.174307 -0.609127  2.147248
  C    -1.124192  2.908031  1.960639
  N     0.993158  0.198529  1.722055
  N     1.030257  3.838391  1.744831
  N    -1.163744 -0.665232  0.810112
  N    -0.975345  2.694451  0.665811
  N    -1.618772 -0.407106  4.652138
  N    -1.809847  3.394780  4.389706
  S    -2.464540 -0.867082  3.306971
  S    -2.387359  2.630527  3.095483
  S     0.350184 -0.200056  0.202500
  S     0.547305  3.166953  0.304655
  S    -0.159646  0.339092  4.325613
  S    -0.261368  4.082546  4.272103
