16  
    
  C    -5.697303 -3.163879  1.621884
  C    -6.044841  0.779369  1.346253
  C    -6.908824 -3.394833  0.809918
  C    -7.240508  0.120000  0.783376
  N    -4.636987 -2.909073  0.816181
  N    -5.137035  1.229586  0.488027
  N    -6.703132 -3.649138 -0.475334
  N    -7.226135  0.157877 -0.544525
  N    -7.821554 -3.072822  3.175898
  N    -7.672851  0.261771  3.347893
  S    -8.428686 -3.423785  1.691890
  S    -8.506303 -0.190524  1.965548
  S    -5.109840 -3.279970 -0.758689
  S    -5.831184  0.981474 -1.067804
  S    -6.144209 -3.048124  3.364898
  S    -6.147857  0.860818  3.117107
