16  
    
  C    -1.098692 -0.661907  2.316517
  C    -0.696940  3.053647  2.733196
  C    -2.249678 -1.301405  1.722619
  C    -1.923887  2.680953  2.109160
  N    -0.046218 -0.613720  1.545347
  N     0.295201  3.325226  1.857847
  N    -2.164914 -1.592421  0.417514
  N    -1.745702  2.316847  0.822468
  N    -2.777434 -0.877213  4.237780
  N    -2.494900  3.074149  4.637326
  S    -3.603254 -1.190420  2.825190
  S    -3.326005  2.768766  3.185457
  S    -0.555732 -1.067132  0.034030
  S    -0.163999  2.626250  0.459217
  S    -1.186424 -0.380831  4.045375
  S    -0.821654  3.377180  4.397843
