16  
    
  C     2.169772  0.976931  3.265347
  C     2.209975  4.388893  2.961218
  C     0.920314  0.657683  2.642314
  C     0.977318  4.075215  2.318389
  N     3.216981  1.041157  2.405406
  N     3.199817  4.640472  2.105537
  N     0.958236  0.562961  1.318165
  N     1.048469  3.924089  0.976091
  N     0.397475  0.951615  5.112505
  N     0.303214  4.334301  4.854052
  S    -0.419267  0.477359  3.799539
  S    -0.376951  3.828260  3.405058
  S     2.494724  0.835445  0.896809
  S     2.601240  4.211159  0.643673
  S     1.954707  1.305430  4.980867
  S     1.991925  4.628485  4.649299
