16  
    
  C    -5.476302 -2.119085  1.524542
  C    -5.247511  0.996660  1.413398
  C    -6.624272 -2.753111  0.903890
  C    -6.476480  0.546550  0.786059
  N    -4.418338 -1.975039  0.718254
  N    -4.219654  1.296303  0.572693
  N    -6.504439 -2.921424 -0.431540
  N    -6.436989  0.357414 -0.532967
  N    -7.126524 -2.542913  3.469706
  N    -7.111330  0.922000  3.319014
  S    -7.876166 -2.877897  2.054369
  S    -7.866299  0.431737  1.851795
  S    -4.938128 -2.421538 -0.784389
  S    -4.913626  0.937730 -0.965278
  S    -5.520925 -2.126842  3.244450
  S    -5.512873  1.361274  3.048197
