16  
    
  C    -0.216291 -0.399224  2.786917
  C     0.153949  3.538126  2.300894
  C    -1.366282 -0.712394  1.985058
  C    -1.100471  3.064665  1.632258
  N     0.836927 -0.072729  2.049330
  N     1.188187  3.702117  1.520571
  N    -1.110484 -0.965478  0.689067
  N    -0.961766  2.989379  0.320210
  N    -2.079662 -0.636870  4.471837
  N    -1.469667  2.898376  4.267678
  S    -2.756073 -0.919095  2.972447
  S    -2.384154  2.863195  2.812630
  S     0.498533 -0.507145  0.436101
  S     0.572903  3.499612 -0.052102
  S    -0.477115 -0.266518  4.502879
  S     0.125779  3.400876  4.044932
