16  
    
  C    -5.390383 -2.509717  1.386641
  C    -5.422864  1.209505  1.290179
  C    -6.638524 -2.824782  0.772362
  C    -6.561316  0.647470  0.655548
  N    -4.406993 -2.264798  0.536829
  N    -4.411866  1.449364  0.444819
  N    -6.608681 -3.033210 -0.531480
  N    -6.376522  0.509802 -0.642314
  N    -6.992539 -2.872617  3.329124
  N    -7.158979  0.701837  3.112512
  S    -7.805023 -3.174366  1.963888
  S    -7.779691  0.084900  1.765274
  S    -5.057672 -2.556930 -0.977176
  S    -4.880980  1.004729 -1.042037
  S    -5.480703 -2.249841  3.098137
  S    -5.590532  1.173552  2.987388
