16  
    
  C     2.028523  0.857063  3.014521
  C     2.209047  4.354867  3.028458
  C     0.766075  0.478964  2.401693
  C     1.044620  3.975089  2.265505
  N     3.092229  0.890895  2.200887
  N     3.391199  4.427976  2.372008
  N     0.896533  0.174692  1.105635
  N     1.336203  3.865837  0.963273
  N     0.167676  0.979098  4.928151
  N     0.239843  4.385587  4.666132
  S    -0.604680  0.719566  3.460770
  S    -0.389588  3.905463  3.304701
  S     2.492087  0.482353  0.713850
  S     2.958521  4.021804  0.842940
  S     1.850014  1.333679  4.638778
  S     1.836355  4.798977  4.720586
