16  
    
  C    -5.177738 -2.464166  1.758902
  C    -5.335137  1.118582  1.480105
  C    -6.462806 -2.876246  1.200246
  C    -6.642735  0.958241  0.860287
  N    -4.160612 -2.382741  0.928628
  N    -4.273629  1.171731  0.686195
  N    -6.396901 -2.933438 -0.124806
  N    -6.602382  0.623986 -0.420106
  N    -6.987601 -2.283004  3.650168
  N    -7.134427  1.102572  3.395157
  S    -7.867309 -2.737081  2.313390
  S    -7.989121  0.890475  1.986165
  S    -4.790594 -2.677724 -0.591667
  S    -4.977148  0.821456 -0.846096
  S    -5.355256 -1.936923  3.433739
  S    -5.453770  1.352971  3.248808
