16  
    
  C    -4.170019 -2.014931  1.966698
  C    -4.209363  1.354279  1.827142
  C    -5.490594 -2.340494  1.458413
  C    -5.464647  1.309537  1.051227
  N    -3.276520 -2.063879  1.020649
  N    -3.121048  1.404669  1.086549
  N    -5.599573 -2.516304  0.132364
  N    -5.275601  1.077940 -0.255629
  N    -5.702090 -2.279255  3.990128
  N    -6.108549  1.568285  3.604146
  S    -6.748263 -2.294030  2.674229
  S    -6.813847  1.242051  2.155918
  S    -4.031410 -2.353265 -0.450546
  S    -3.569464  1.150873 -0.534161
  S    -4.053406 -2.030175  3.701449
  S    -4.450032  1.493968  3.555218
