16  
    
  C     3.221287  1.577265  3.743913
  C     3.204692  4.980566  3.470656
  C     1.981345  1.209757  3.109661
  C     1.987324  4.584670  2.779968
  N     4.250632  1.689509  2.879341
  N     4.255110  5.135867  2.680953
  N     2.113239  1.037714  1.798352
  N     2.083577  4.557086  1.469820
  N     1.344784  1.539375  5.527737
  N     1.376823  5.153360  5.214347
  S     0.579653  1.173538  4.069797
  S     0.587292  4.625507  3.802560
  S     3.674102  1.335726  1.385792
  S     3.730493  4.790988  1.110070
  S     3.008580  1.738773  5.487896
  S     3.036205  5.232979  5.179985
