16  
    
  C    -2.169473 -0.781329  2.240244
  C    -2.162975  2.427634  1.940386
  C    -3.343872 -1.391412  1.635798
  C    -3.480230  2.067244  1.372306
  N    -1.068452 -0.796171  1.509086
  N    -1.210636  2.610763  1.008701
  N    -3.154673 -1.658895  0.370740
  N    -3.391052  1.743515  0.084818
  N    -3.904110 -1.181638  4.106091
  N    -3.857968  2.359388  3.893541
  S    -4.719942 -1.307414  2.699941
  S    -4.701007  1.970754  2.547156
  S    -1.576248 -1.314142  0.006836
  S    -1.823989  2.048599 -0.389313
  S    -2.297808 -0.765696  4.011059
  S    -2.241859  2.621660  3.712823
