16  
    
  C    -0.261302 -0.703959  2.646291
  C    -0.384393  3.127517  2.716739
  C    -1.608399 -1.023298  2.117848
  C    -1.569995  2.733236  2.024416
  N     0.760039 -0.764693  1.821563
  N     0.603979  3.399252  1.887844
  N    -1.556787 -1.360582  0.840511
  N    -1.377709  2.455636  0.728961
  N    -1.969891 -0.613058  4.650669
  N    -2.084977  2.929424  4.535573
  S    -2.845527 -1.278570  3.385292
  S    -2.864808  2.408415  3.187269
  S     0.082465 -1.227468  0.355344
  S     0.200332  2.944649  0.385747
  S    -0.336602 -0.302970  4.322974
  S    -0.586331  3.606255  4.382687
