16  
    
  C    -4.710026 -2.637635  1.532665
  C    -4.742188  0.915013  1.446208
  C    -6.006498 -2.843648  1.010085
  C    -5.927771  0.616684  0.725577
  N    -3.716681 -2.507615  0.622744
  N    -3.659998  0.942629  0.644477
  N    -5.979845 -3.146852 -0.282369
  N    -5.862571  0.665182 -0.588759
  N    -6.350407 -2.551976  3.508516
  N    -6.536626  0.923215  3.232992
  S    -7.239778 -3.033778  2.170229
  S    -7.258418  0.533365  1.747876
  S    -4.439502 -3.007529 -0.772849
  S    -4.205780  0.998106 -0.920077
  S    -4.722634 -2.464626  3.257765
  S    -4.914780  1.134528  3.163308
