16  
    
  C    -1.424933 -1.186706  2.691693
  C    -1.588381  2.717506  2.327247
  C    -2.597045 -1.469639  1.844478
  C    -2.710074  2.130810  1.629944
  N    -0.286147 -0.950010  1.988480
  N    -0.445843  2.754481  1.650148
  N    -2.291980 -1.628413  0.524364
  N    -2.507410  1.984002  0.329117
  N    -3.419417 -1.705057  4.322154
  N    -3.500609  2.494150  4.085513
  S    -4.018051 -1.977636  2.760843
  S    -4.073135  1.908585  2.626448
  S    -0.660168 -1.195071  0.354482
  S    -0.871681  2.209999  0.151069
  S    -1.880995 -1.053141  4.352262
  S    -1.905256  2.975596  4.062121
