16  
    
  C     1.149775  0.187197  2.907264
  C     0.735195  3.678879  3.184355
  C    -0.027956 -0.410455  2.435485
  C    -0.507944  3.444251  2.506187
  N     2.119567  0.331686  1.983063
  N     1.702303  4.107292  2.332931
  N    -0.009010 -0.838772  1.168770
  N    -0.343673  3.354872  1.158477
  N    -0.482803  0.164315  4.971565
  N    -1.000822  3.247814  5.029047
  S    -1.262851 -0.491502  3.693350
  S    -1.813366  3.050068  3.597030
  S     1.507857 -0.369852  0.614640
  S     1.228901  3.706899  0.860364
  S     1.052249  0.566462  4.663134
  S     0.609673  3.641341  4.882051
