16  
    
  C     3.345199  1.495790  3.462062
  C     3.201728  5.129759  3.490113
  C     2.004071  1.395713  2.884918
  C     1.928224  4.726836  2.923436
  N     4.331007  1.520363  2.582424
  N     4.221267  4.981960  2.626655
  N     1.946215  1.246335  1.555399
  N     1.983245  4.494543  1.611298
  N     1.689431  1.713489  5.438772
  N     1.412168  5.073251  5.379318
  S     0.777697  1.503012  4.109305
  S     0.555932  4.705776  3.979275
  S     3.516870  1.335943  1.064553
  S     3.547750  4.673610  1.159326
  S     3.319796  1.552669  5.256243
  S     3.038558  5.361254  5.287959
