16  
    
  C     2.760743  1.385240  3.664001
  C     2.938244  5.269239  3.637169
  C     1.545074  1.028399  3.033264
  C     1.692796  5.072044  2.888894
  N     3.765032  1.514395  2.793629
  N     3.993822  5.337806  2.857664
  N     1.606274  0.863213  1.709666
  N     1.852665  4.781484  1.604359
  N     0.997578  0.876880  5.564208
  N     1.149741  4.723889  5.344522
  S     0.232002  0.740622  4.099015
  S     0.354109  4.871746  3.925358
  S     3.226141  1.213973  1.307201
  S     3.471769  5.136810  1.321490
  S     2.545726  1.454634  5.453602
  S     2.699750  5.301507  5.363299
