16  
    
  C     1.561073  0.973320  3.244397
  C     1.888310  4.680596  3.264337
  C     0.397528  0.503522  2.572515
  C     0.703602  3.987225  2.731740
  N     2.623604  1.139960  2.446486
  N     2.950132  4.639019  2.421013
  N     0.563144  0.372130  1.245704
  N     0.855110  3.691603  1.407838
  N    -0.244508  0.584238  5.018956
  N     0.108416  4.528726  5.226275
  S    -0.911847  0.100707  3.560212
  S    -0.609241  4.088667  3.781794
  S     2.109950  0.758318  0.931674
  S     2.325286  4.147641  1.008685
  S     1.236729  1.218353  4.900651
  S     1.781649  4.873823  5.043887
