16  
    
  C    -5.072127 -2.555267  1.924565
  C    -5.451269  1.155409  1.624810
  C    -6.296448 -2.903414  1.303420
  C    -6.716878  1.004398  0.953571
  N    -3.990212 -2.550589  1.138976
  N    -4.368979  1.126138  0.832042
  N    -6.206989 -3.295361  0.024567
  N    -6.639293  0.759852 -0.391122
  N    -6.793880 -2.503062  3.788165
  N    -7.199141  1.061261  3.502024
  S    -7.632456 -2.739400  2.379420
  S    -7.976293  0.773402  2.116167
  S    -4.553810 -3.090931 -0.325421
  S    -4.991610  0.751388 -0.695867
  S    -5.192753 -2.166832  3.599819
  S    -5.581780  1.252692  3.414643
