16  
    
  C     3.139625  1.500023  3.342534
  C     3.126975  4.943281  3.410750
  C     1.907918  1.158169  2.671426
  C     1.946674  4.659153  2.692976
  N     4.169249  1.638338  2.513549
  N     4.173725  5.133268  2.614636
  N     1.930451  0.986556  1.356870
  N     2.047257  4.599692  1.396108
  N     1.281339  1.662595  5.194855
  N     1.191787  5.021836  5.108950
  S     0.528106  1.390935  3.723599
  S     0.481482  4.675576  3.630963
  S     3.465695  1.322811  0.942220
  S     3.615357  4.873397  1.084111
  S     2.948681  1.743748  5.022492
  S     2.841235  5.268738  5.059933
