16  
    
  C     0.840639  0.383630  2.972632
  C     0.517593  3.759513  2.938762
  C    -0.369640  0.000055  2.355490
  C    -0.763195  3.397928  2.395730
  N     1.898337  0.386101  2.199473
  N     1.516948  3.746927  2.041675
  N    -0.263881 -0.186948  1.041908
  N    -0.814415  3.576520  1.043484
  N    -0.905301  0.282648  4.801012
  N    -1.062717  3.606382  4.948681
  S    -1.705702 -0.126071  3.414211
  S    -2.055798  3.287932  3.610961
  S     1.338451  0.001673  0.679344
  S     0.752602  3.612349  0.571780
  S     0.685609  0.677086  4.625735
  S     0.517386  3.867554  4.650593
