16  
    
  C    -2.127537 -0.897637  2.326427
  C    -1.998158  2.253872  1.996503
  C    -3.350270 -1.315194  1.689162
  C    -3.256521  2.019378  1.358530
  N    -1.068820 -0.911598  1.492773
  N    -0.988555  2.402743  1.149148
  N    -3.299491 -1.387102  0.330243
  N    -3.163888  1.740849  0.058530
  N    -3.862671 -1.151269  4.121725
  N    -3.803465  2.382089  3.834505
  S    -4.725636 -1.217622  2.734231
  S    -4.581229  1.822211  2.480300
  S    -1.697196 -1.285596 -0.006801
  S    -1.595575  2.133884 -0.340386
  S    -2.285779 -0.640240  3.992511
  S    -2.146563  2.494726  3.739742
