16  
    
  C    -4.326835 -1.732606  1.967060
  C    -4.142225  1.593429  1.894588
  C    -5.452148 -2.327056  1.326256
  C    -5.433797  1.090909  1.333806
  N    -3.288367 -1.720231  1.145158
  N    -3.169769  1.625445  1.015186
  N    -5.348399 -2.702121  0.083291
  N    -5.392721  0.760126  0.066746
  N    -5.943789 -2.168573  3.803277
  N    -5.821100  1.578369  3.823091
  S    -6.888987 -2.339792  2.414509
  S    -6.651735  0.959784  2.565145
  S    -3.760020 -2.339255 -0.328340
  S    -3.788883  1.049081 -0.463079
  S    -4.408040 -1.548563  3.667479
  S    -4.217170  1.853185  3.629985
