16  
    
  C     1.790454  0.454135  3.174568
  C     1.892593  4.580697  3.361393
  C     0.596900  0.137057  2.449610
  C     0.796506  3.934642  2.678422
  N     2.858555  0.720126  2.439505
  N     2.914439  4.803551  2.542008
  N     0.719345  0.250284  1.144174
  N     0.868303  3.938255  1.324992
  N    -0.031621  0.010726  4.888461
  N     0.337937  4.014741  5.289559
  S    -0.779704 -0.268196  3.467103
  S    -0.478268  3.716831  3.789482
  S     2.348942  0.703639  0.859480
  S     2.399120  4.631722  0.971877
  S     1.523898  0.616456  4.851097
  S     1.908669  4.434357  5.052920
