16  
    
  C     2.686120  1.127730  3.526239
  C     2.964484  4.836889  3.695884
  C     1.547647  0.673308  2.750694
  C     1.633065  4.981797  3.103995
  N     3.742854  1.519386  2.809717
  N     3.948589  4.906121  2.788374
  N     1.698646  0.739419  1.440733
  N     1.617507  4.887394  1.784877
  N     0.745936  0.843837  5.155996
  N     1.270521  5.540223  5.569067
  S     0.119839  0.377310  3.648645
  S     0.358646  5.288013  4.203955
  S     3.176068  1.327424  1.168540
  S     3.166610  4.776981  1.266993
  S     2.417913  1.067182  5.289508
  S     2.920381  5.373612  5.383253
