16  
    
  C    -5.112802 -2.433914  1.876927
  C    -5.337886  0.963331  1.613283
  C    -6.390942 -2.782521  1.256173
  C    -6.671184  0.809890  0.972905
  N    -4.095749 -2.517229  1.042781
  N    -4.306063  1.120539  0.781199
  N    -6.344484 -3.155764 -0.019750
  N    -6.637565  0.653052 -0.369065
  N    -6.892709 -2.046918  3.638428
  N    -7.177640  1.065744  3.445571
  S    -7.673772 -2.763237  2.367883
  S    -8.028092  0.950715  2.067837
  S    -4.729220 -2.933672 -0.440820
  S    -5.025096  0.910040 -0.752736
  S    -5.250553 -2.127518  3.602643
  S    -5.545773  1.337774  3.258518
