16  
    
  C     2.276060  0.947317  3.424170
  C     2.025515  4.720448  2.980823
  C     0.998894  0.614152  2.840360
  C     0.844860  4.151850  2.366193
  N     3.278593  1.063907  2.553283
  N     3.008927  5.022235  2.189005
  N     1.088580  0.363603  1.550791
  N     0.939532  4.108156  1.049560
  N     0.542211  0.831062  5.423451
  N     0.331016  4.347402  4.810541
  S    -0.317597  0.675073  4.000451
  S    -0.505590  4.006533  3.464597
  S     2.668584  0.697881  1.092532
  S     2.535056  4.553384  0.664604
  S     2.257364  1.004174  5.119213
  S     1.834360  4.968959  4.662256
