16  
    
  C    -3.788639 -2.393729  1.677087
  C    -3.387463  1.764549  1.604990
  C    -5.035022 -2.591831  0.997259
  C    -4.638658  1.226943  1.000880
  N    -2.758394 -2.262909  0.899432
  N    -2.304030  1.897943  0.816277
  N    -4.953261 -2.596404 -0.321643
  N    -4.421028  0.890761 -0.267581
  N    -5.501168 -2.896246  3.487595
  N    -5.104225  1.454657  3.563814
  S    -6.343053 -2.735965  2.079644
  S    -5.861235  0.823437  2.164982
  S    -3.324701 -2.318629 -0.638141
  S    -2.842811  1.236317 -0.691181
  S    -3.818316 -2.641468  3.397901
  S    -3.555508  2.121232  3.301961
