16  
    
  C    -4.213989 -1.955593  1.872582
  C    -4.159892  1.639951  1.854962
  C    -5.426957 -2.406740  1.237221
  C    -5.341131  0.917391  1.441369
  N    -3.244799 -1.811448  1.000596
  N    -3.174521  1.715241  0.931976
  N    -5.317723 -2.842429 -0.055322
  N    -5.341014  0.553298  0.142491
  N    -5.987635 -2.148296  3.784405
  N    -5.924751  1.788965  3.774953
  S    -6.790123 -2.291910  2.320886
  S    -6.651007  0.954061  2.546598
  S    -3.740894 -2.412880 -0.466751
  S    -3.805176  1.069166 -0.449719
  S    -4.522239 -1.479199  3.497185
  S    -4.272821  1.947783  3.573377
