16  
    
  C    -1.370562 -0.575720  1.837005
  C    -1.219482  3.355913  2.120940
  C    -2.579226 -1.250357  1.474112
  C    -2.391666  2.771501  1.592561
  N    -0.515642 -0.543985  0.820449
  N    -0.302998  3.652150  1.205070
  N    -2.770633 -1.416270  0.156848
  N    -2.383620  2.546947  0.273937
  N    -2.799828 -0.542059  4.010983
  N    -2.762327  2.915930  4.091492
  S    -3.698559 -1.357182  2.832970
  S    -3.567976  2.311951  2.788637
  S    -1.325415 -1.031967 -0.527543
  S    -0.978154  3.253266 -0.260359
  S    -1.247656 -0.153351  3.537991
  S    -1.255511  3.543967  3.841211
