16  
    
  C    -2.881264 -1.653920  2.017130
  C    -2.383193  1.951306  2.006357
  C    -4.146098 -1.981643  1.405435
  C    -3.679820  1.807033  1.465247
  N    -1.938245 -1.360044  1.162876
  N    -1.330098  1.861178  1.207751
  N    -4.101927 -2.123641  0.097124
  N    -3.651044  1.677198  0.148195
  N    -4.377363 -2.048614  4.040834
  N    -4.078805  2.286966  4.011515
  S    -5.272867 -2.369471  2.685329
  S    -4.985095  2.096839  2.642668
  S    -2.482521 -1.721802 -0.321071
  S    -2.043045  1.794901 -0.317036
  S    -2.819068 -1.541585  3.728647
  S    -2.441672  2.361723  3.718310
