16  
    
  C    -0.794835 -0.893710  2.465791
  C    -0.953830  3.049993  2.477781
  C    -1.958421 -1.317277  1.748025
  C    -2.214175  2.943554  1.825875
  N     0.274379 -0.654560  1.703681
  N     0.114577  3.025697  1.659010
  N    -1.895762 -1.282145  0.441825
  N    -2.108136  2.608445  0.531909
  N    -2.650283 -1.117730  4.244176
  N    -2.790981  3.184535  4.322807
  S    -3.297280 -1.577875  2.765563
  S    -3.583688  2.760796  2.890521
  S    -0.289734 -0.803372  0.108168
  S    -0.509379  2.760402  0.146684
  S    -1.093663 -0.527755  4.210298
  S    -1.112357  3.396862  4.167611
