16  
    
  C    -4.701375 -2.838321  1.516143
  C    -4.684883  0.924834  1.418189
  C    -6.026054 -3.015788  0.937913
  C    -5.940675  0.648856  0.745873
  N    -3.709469 -2.752219  0.624138
  N    -3.611880  1.023719  0.646811
  N    -5.951243 -3.144990 -0.372363
  N    -5.795236  0.750045 -0.560231
  N    -6.387390 -2.621505  3.511710
  N    -6.498898  0.794831  3.309248
  S    -7.317063 -2.974417  2.117058
  S    -7.336780  0.702079  1.787650
  S    -4.413150 -2.860275 -0.873362
  S    -4.139484  0.969136 -0.925273
  S    -4.741737 -2.468970  3.222191
  S    -4.836528  1.025982  3.115510
