16  
    
  C    -4.894198 -2.629670  1.951752
  C    -5.386241  0.995756  1.743451
  C    -6.130205 -3.006713  1.335380
  C    -6.613205  0.768530  1.068164
  N    -3.831333 -2.553285  1.143946
  N    -4.332262  1.055219  0.926993
  N    -6.036914 -3.227178  0.013401
  N    -6.483610  0.543533 -0.273445
  N    -6.771700 -2.667138  3.796570
  N    -7.117974  1.007317  3.539278
  S    -7.576851 -2.974563  2.356131
  S    -7.971033  0.636399  2.156038
  S    -4.417211 -3.015757 -0.406785
  S    -4.921945  0.814212 -0.591590
  S    -5.211253 -2.232905  3.647804
  S    -5.529327  1.337232  3.461619
