16  
    
  C    -0.655364 -0.429928  2.654974
  C    -0.356256  3.304657  2.712144
  C    -1.902794 -0.833418  2.042698
  C    -1.414373  2.558450  2.056785
  N     0.314285 -0.231116  1.803487
  N     0.646985  3.667691  1.935535
  N    -1.794840 -1.181344  0.773573
  N    -1.074696  2.108337  0.849927
  N    -2.200398 -0.866328  4.660262
  N    -2.209895  3.062251  4.441812
  S    -3.092245 -0.990079  3.245732
  S    -2.832957  2.301740  3.129536
  S    -0.194050 -0.814609  0.331071
  S     0.395101  2.810547  0.516689
  S    -0.666923 -0.302754  4.383023
  S    -0.727852  3.723099  4.304298
