16  
    
  C     1.752231  0.529441  3.197929
  C     2.029094  4.499099  3.301755
  C     0.634441  0.138531  2.428896
  C     0.798862  4.133373  2.662391
  N     2.871607  0.867704  2.495805
  N     2.966863  4.976260  2.462474
  N     0.833642  0.222514  1.105520
  N     0.924255  3.906732  1.323443
  N    -0.152668  0.081338  4.978952
  N     0.342426  4.014163  5.168485
  S    -0.727542 -0.312326  3.444131
  S    -0.463842  3.685291  3.830081
  S     2.383543  0.691952  0.909558
  S     2.378273  4.555333  0.942926
  S     1.431390  0.630207  4.917873
  S     1.900146  4.556941  5.056759
