16  
    
  C    -1.398041 -1.139531  2.628708
  C    -1.564445  2.634521  2.403812
  C    -2.504075 -1.524942  1.826972
  C    -2.694322  2.213474  1.596299
  N    -0.270945 -0.953989  1.969472
  N    -0.461421  2.736800  1.661612
  N    -2.271217 -1.573594  0.544706
  N    -2.467933  1.904318  0.303577
  N    -3.415305 -1.758377  4.274030
  N    -3.462587  2.476715  4.039846
  S    -3.999130 -1.975615  2.721673
  S    -4.047507  1.843886  2.627391
  S    -0.690665 -1.202472  0.355390
  S    -0.817782  2.244550  0.106395
  S    -1.887962 -0.998169  4.312984
  S    -1.891211  3.021762  4.038264
