16  
    
  C    -3.985033 -1.720676  1.699858
  C    -3.864918  1.519537  1.687815
  C    -5.180220 -2.207980  1.015996
  C    -5.120003  1.297675  1.108253
  N    -2.911035 -1.762668  0.875533
  N    -2.796145  1.590488  0.871765
  N    -5.060671 -2.533136 -0.274226
  N    -5.025943  1.113433 -0.203894
  N    -5.787897 -2.007145  3.527051
  N    -5.634629  1.505634  3.637486
  S    -6.554036 -2.270322  2.103447
  S    -6.514135  1.371822  2.273193
  S    -3.472726 -2.334060 -0.587499
  S    -3.478179  1.340456 -0.699000
  S    -4.198546 -1.619845  3.390570
  S    -4.007946  1.706832  3.476586
