16  
    
  C     1.059405  0.273277  2.938878
  C     0.448238  3.735127  2.839431
  C    -0.129840 -0.191306  2.249387
  C    -0.611707  3.039309  2.083433
  N     2.093775  0.592103  2.177309
  N     1.525303  3.950393  2.104360
  N    -0.035073 -0.116516  0.913035
  N    -0.307181  2.935097  0.778800
  N    -0.800008 -0.269010  4.737909
  N    -1.363011  3.217028  4.553759
  S    -1.525624 -0.409428  3.267421
  S    -1.966514  2.704738  3.023745
  S     1.531923  0.411774  0.645166
  S     1.173828  3.630810  0.573223
  S     0.786863  0.221811  4.636468
  S     0.187798  3.725311  4.569627
