16  
    
  C    -0.109390 -0.403009  2.583803
  C    -0.015718  3.239974  2.568566
  C    -1.262026 -1.107125  1.916826
  C    -1.087273  2.640137  1.882342
  N     0.928859 -0.157405  1.808527
  N     0.904994  3.718129  1.773171
  N    -1.116739 -1.114289  0.601411
  N    -0.939623  2.509079  0.556548
  N    -1.893551 -0.983281  4.371510
  N    -1.839309  2.938476  4.320017
  S    -2.638140 -1.375008  2.911125
  S    -2.477132  2.293345  2.884033
  S     0.412847 -0.530595  0.270144
  S     0.543592  3.174983  0.234844
  S    -0.307444 -0.468445  4.274820
  S    -0.325823  3.528634  4.317518
