16  
    
  C     1.061828  0.098115  2.902041
  C     0.931192  3.664671  3.021572
  C    -0.166690 -0.443567  2.461292
  C    -0.390515  3.431159  2.484668
  N     1.999515  0.214918  1.984095
  N     1.917336  3.860157  2.140785
  N    -0.205641 -0.678731  1.154216
  N    -0.389835  3.201815  1.193504
  N    -0.415031 -0.089219  5.050160
  N    -0.762339  3.557072  5.007731
  S    -1.328614 -0.529054  3.742161
  S    -1.687489  3.302199  3.651066
  S     1.267451 -0.255146  0.562664
  S     1.130381  3.497002  0.662010
  S     1.169887  0.395091  4.651797
  S     0.823767  4.021287  4.718221
