16  
    
  C    -1.894672 -1.045581  2.378319
  C    -1.869657  2.351102  2.613655
  C    -3.088865 -1.562545  1.802810
  C    -3.068920  1.918982  1.935747
  N    -0.811917 -0.884647  1.590230
  N    -0.888048  2.742297  1.815284
  N    -2.971282 -1.729726  0.494077
  N    -2.972489  1.910323  0.609912
  N    -3.580995 -1.141600  4.281822
  N    -3.716071  2.087940  4.403494
  S    -4.423066 -1.584226  2.913885
  S    -4.488080  1.951129  2.928518
  S    -1.418400 -1.228871  0.064420
  S    -1.406657  2.434441  0.260118
  S    -1.964474 -0.889925  4.127967
  S    -2.090250  2.419433  4.323603
