16  
    
  C    -4.937833 -2.572413  1.932360
  C    -5.298511  0.990619  1.756742
  C    -6.127977 -2.936937  1.249196
  C    -6.489102  0.465524  1.153985
  N    -3.884943 -2.451356  1.150421
  N    -4.207954  1.176436  0.982442
  N    -5.979608 -3.229596 -0.053748
  N    -6.443316  0.393056 -0.201682
  N    -6.776644 -2.512317  3.689278
  N    -7.150964  1.048958  3.644850
  S    -7.439471 -3.204726  2.307570
  S    -7.879201  0.579410  2.227421
  S    -4.368280 -2.865927 -0.350247
  S    -4.810361  0.829035 -0.577983
  S    -5.094098 -2.334431  3.657433
  S    -5.508907  1.333594  3.455938
