16  
    
  C     1.549679  0.759628  2.884952
  C     0.871178  3.979002  2.568243
  C     0.366408  0.218151  2.250069
  C    -0.300236  3.414438  1.817431
  N     2.620227  0.740818  2.056152
  N     1.936349  4.058320  1.796360
  N     0.480116 -0.188176  0.995301
  N    -0.231422  3.421622  0.495009
  N    -0.336962  0.766397  4.751266
  N    -0.906374  3.602544  4.355497
  S    -1.082412  0.275295  3.293199
  S    -1.631162  3.174076  2.928067
  S     2.075381  0.048771  0.592759
  S     1.435390  3.708576  0.240716
  S     1.335760  1.137231  4.590115
  S     0.758103  4.053404  4.284640
