16  
    
  C    -4.216703 -1.954603  1.877094
  C    -4.150419  1.648633  1.867112
  C    -5.421220 -2.388149  1.241964
  C    -5.340933  0.926454  1.424479
  N    -3.244479 -1.793986  1.007935
  N    -3.182509  1.707645  0.918086
  N    -5.317724 -2.850535 -0.045600
  N    -5.339511  0.555870  0.127311
  N    -5.992268 -2.159109  3.791562
  N    -5.928933  1.788971  3.793513
  S    -6.795965 -2.287910  2.327282
  S    -6.651064  0.954818  2.554537
  S    -3.741844 -2.402763 -0.451693
  S    -3.802469  1.068713 -0.454969
  S    -4.518329 -1.481242  3.496749
  S    -4.266863  1.939137  3.584363
