16  
    
  C    -0.984890 -0.768731  2.249710
  C    -0.751905  2.923898  2.513563
  C    -2.080255 -1.460159  1.673088
  C    -2.039336  2.696217  1.835480
  N     0.073558 -0.678364  1.462590
  N     0.306244  2.988527  1.693033
  N    -1.885096 -1.714614  0.392451
  N    -1.871104  2.376284  0.528237
  N    -2.831608 -0.745648  4.054684
  N    -2.484962  2.756579  4.414825
  S    -3.509412 -1.565791  2.752339
  S    -3.295602  2.414749  2.984841
  S    -0.366906 -1.330495  0.017706
  S    -0.276598  2.765468  0.153847
  S    -1.277213 -0.249969  3.862047
  S    -0.875590  3.275230  4.162406
