16  
    
  C     1.128989 -0.027404  2.905233
  C     0.860151  3.827483  2.868735
  C    -0.198252 -0.360648  2.481553
  C    -0.389925  3.361717  2.369257
  N     2.013996  0.195301  1.941290
  N     1.799096  3.822735  1.987414
  N    -0.292572 -0.508134  1.149082
  N    -0.369060  3.140328  1.054161
  N    -0.466715 -0.117389  4.996193
  N    -0.718021  3.876724  4.928125
  S    -1.415853 -0.519329  3.749360
  S    -1.562081  3.364524  3.635482
  S     1.204803 -0.135108  0.540474
  S     1.218639  3.361347  0.581589
  S     1.096083  0.262065  4.670794
  S     0.925802  4.281947  4.622704
