16  
    
  C     2.497210  1.102392  3.307020
  C     2.977996  5.339184  3.783894
  C     1.365337  0.601941  2.578213
  C     1.672947  5.102277  3.239712
  N     3.524339  1.302096  2.520220
  N     3.972543  5.181527  2.923063
  N     1.533226  0.399452  1.276439
  N     1.630263  4.737386  1.959500
  N     0.725926  0.683820  5.078032
  N     1.312221  5.500315  5.759354
  S     0.041519  0.259220  3.598193
  S     0.414311  5.429448  4.380368
  S     3.099864  0.883923  1.005941
  S     3.201573  4.635441  1.499055
  S     2.235186  1.322791  5.023381
  S     2.950805  5.694312  5.508012
