16  
    
  C     1.458678  0.787650  3.435312
  C     1.276229  4.521486  3.209094
  C     0.205182  0.325434  2.908832
  C    -0.038576  4.265117  2.691321
  N     2.403977  0.826786  2.533279
  N     2.183757  4.716485  2.251544
  N     0.263439  0.032750  1.618808
  N    -0.017129  3.960576  1.382355
  N    -0.247188  0.932045  5.296341
  N    -0.203186  4.178639  5.227984
  S    -1.150989  0.498156  4.037374
  S    -1.273986  3.907439  3.960844
  S     1.806026  0.371579  1.093573
  S     1.459150  4.397968  0.851443
  S     1.413305  1.250708  5.124312
  S     1.351156  4.659816  4.913361
