16  
    
  C    -2.656325 -1.820152  2.006916
  C    -2.894706  2.251606  1.861407
  C    -3.925197 -2.070513  1.304685
  C    -4.095779  1.793774  1.114180
  N    -1.570373 -1.909245  1.230552
  N    -1.901986  2.697490  1.095396
  N    -3.780536 -2.223066  0.004089
  N    -3.851035  1.670538 -0.175723
  N    -4.654761 -1.885800  3.681369
  N    -4.764780  1.798286  3.588686
  S    -5.368047 -2.231052  2.262711
  S    -5.449165  1.443115  2.137164
  S    -2.204108 -2.085212 -0.326614
  S    -2.356900  2.255552 -0.495195
  S    -2.954452 -1.741943  3.726262
  S    -3.192615  2.331984  3.652508
