16  
    
  C    -0.998904 -0.707313  2.217997
  C    -0.779628  2.955429  2.496519
  C    -2.177617 -1.375369  1.683692
  C    -1.971361  2.540347  1.868090
  N     0.099057 -0.697654  1.458704
  N     0.281206  2.963875  1.720337
  N    -2.028485 -1.687193  0.403360
  N    -1.860113  2.469492  0.554514
  N    -2.892065 -0.653009  4.046575
  N    -2.470290  2.820352  4.343461
  S    -3.531576 -1.601986  2.783601
  S    -3.301894  2.420406  3.016993
  S    -0.407804 -1.331290  0.002423
  S    -0.259942  2.727499  0.202176
  S    -1.271685 -0.258518  3.859752
  S    -0.929718  3.275568  4.203952
