16  
    
  C    -0.117642 -0.499097  2.591701
  C     0.007679  3.224757  2.602404
  C    -1.247815 -1.084268  1.895681
  C    -1.133081  2.664487  1.889564
  N     0.878494 -0.144173  1.793567
  N     0.916532  3.755028  1.778341
  N    -1.119603 -1.152206  0.590911
  N    -0.918379  2.378826  0.607769
  N    -1.880964 -0.993036  4.347451
  N    -1.873852  2.898620  4.316464
  S    -2.614535 -1.357967  2.892004
  S    -2.505994  2.298364  2.900526
  S     0.395219 -0.535705  0.226427
  S     0.505512  3.163347  0.238845
  S    -0.245761 -0.480182  4.291723
  S    -0.348803  3.525703  4.336120
