16  
    
  C    -3.527519 -2.532188  1.878637
  C    -3.683480  1.940805  1.835278
  C    -4.697525 -3.045978  1.197510
  C    -4.624623  1.020750  1.236345
  N    -2.423043 -2.377082  1.170596
  N    -2.714028  2.278875  1.032373
  N    -4.527691 -3.188458 -0.134418
  N    -4.396150  0.674970 -0.024246
  N    -5.466999 -2.534305  3.653009
  N    -5.386775  1.469514  3.680796
  S    -6.010011 -3.346270  2.330086
  S    -5.969839  0.581660  2.376396
  S    -2.924764 -2.730552 -0.405865
  S    -2.981223  1.471944 -0.452449
  S    -3.819871 -2.190358  3.597257
  S    -3.928121  2.263604  3.565922
