16  
    
  C    -3.199657 -1.922117  1.830270
  C    -3.639274  1.754569  2.037029
  C    -4.383042 -2.546649  1.270600
  C    -4.707510  1.073284  1.358053
  N    -2.119193 -1.938900  1.052139
  N    -2.542302  2.098630  1.339293
  N    -4.287302 -2.696776 -0.070108
  N    -4.405951  0.755013  0.104840
  N    -4.979715 -2.081322  3.769429
  N    -5.601485  1.500044  3.695315
  S    -5.630878 -2.834439  2.401814
  S    -6.155972  0.734745  2.273761
  S    -2.689204 -2.366618 -0.463492
  S    -2.911257  1.398887 -0.193558
  S    -3.445274 -1.444595  3.582617
  S    -3.987729  2.086901  3.732823
