16  
    
  C     2.017430  0.652669  3.194249
  C     1.904877  4.304419  3.080769
  C     0.697832  0.396502  2.675924
  C     0.653859  4.056405  2.451380
  N     2.975473  0.630088  2.265406
  N     2.929694  4.165608  2.239382
  N     0.693799  0.170869  1.341208
  N     0.680810  3.830253  1.130930
  N     0.378636  0.682570  5.165345
  N     0.218028  4.270052  5.109519
  S    -0.580067  0.325465  3.908056
  S    -0.696957  3.986922  3.652442
  S     2.269939  0.305941  0.798532
  S     2.270699  3.982808  0.759557
  S     2.031787  0.787868  4.963936
  S     1.875613  4.558433  4.824057
