16  
    
  C    -0.535507 -0.610902  2.474724
  C    -0.365608  3.432315  2.948202
  C    -1.840137 -0.895712  1.763516
  C    -1.525959  2.946992  2.327136
  N     0.448801 -0.388229  1.583240
  N     0.606741  3.727940  2.074312
  N    -1.794491 -1.114152  0.444915
  N    -1.405727  2.663546  1.030455
  N    -2.367923 -0.794357  4.286645
  N    -2.262771  3.339434  4.738761
  S    -3.141328 -1.026075  2.858657
  S    -2.976084  2.844184  3.317493
  S    -0.177333 -0.658380  0.063530
  S     0.127830  3.101632  0.618178
  S    -0.739960 -0.381893  4.169073
  S    -0.628155  3.743634  4.653343
