16  
    
  C    -0.830471 -0.820232  2.486324
  C    -1.015764  3.119914  2.456165
  C    -2.005145 -1.153808  1.762350
  C    -2.290446  2.734216  1.795817
  N     0.221218 -0.514285  1.667360
  N     0.056529  3.063902  1.677537
  N    -1.850742 -1.275718  0.421670
  N    -2.144644  2.666505  0.469647
  N    -2.633111 -1.173635  4.233589
  N    -2.840508  3.221001  4.301974
  S    -3.351252 -1.558683  2.798430
  S    -3.640016  2.876466  2.875073
  S    -0.332309 -0.742842  0.136292
  S    -0.514409  2.700226  0.160673
  S    -1.100313 -0.550885  4.185259
  S    -1.186490  3.376746  4.156319
