16  
    
  C     2.958230  1.547091  3.394933
  C     2.958383  5.105262  3.237417
  C     1.700926  1.322593  2.692227
  C     1.747239  4.739722  2.562470
  N     4.032772  1.566207  2.625011
  N     4.068819  5.206832  2.539941
  N     1.836736  1.252917  1.387389
  N     1.978951  4.517728  1.285658
  N     1.221982  1.097513  5.212543
  N     1.186273  4.973149  5.033832
  S     0.440922  0.918442  3.782622
  S     0.383543  4.517126  3.630934
  S     3.443441  1.394881  1.018638
  S     3.572017  4.753603  1.002619
  S     2.789699  1.588165  5.144491
  S     2.803978  5.333548  4.933816
