16  
    
  C    -2.159816 -0.955460  2.271284
  C    -2.050641  2.399120  1.982175
  C    -3.424308 -1.191797  1.611445
  C    -3.324537  1.968526  1.396684
  N    -1.124858 -0.802977  1.480167
  N    -1.016906  2.473032  1.126322
  N    -3.256599 -1.514332  0.355460
  N    -3.226112  1.750213  0.093907
  N    -3.891304 -1.206865  4.173822
  N    -3.821698  2.366262  3.890856
  S    -4.747135 -1.231995  2.749027
  S    -4.639837  1.883904  2.498606
  S    -1.613573 -1.319980  0.009288
  S    -1.690900  2.099093 -0.354301
  S    -2.305654 -0.669344  4.020684
  S    -2.171927  2.522511  3.675919
