16  
    
  C    -2.967271 -1.815675  2.208169
  C    -3.327992  1.725704  2.005989
  C    -4.286849 -1.792604  1.588053
  C    -4.620597  1.320130  1.478622
  N    -1.906458 -1.802415  1.422061
  N    -2.340325  1.901547  1.104504
  N    -4.230856 -1.954314  0.263832
  N    -4.659906  1.277928  0.150260
  N    -4.742329 -1.949627  4.124645
  N    -4.928361  1.407149  4.047221
  S    -5.595024 -1.974215  2.700805
  S    -5.833407  1.087372  2.721090
  S    -2.631341 -1.936170 -0.107557
  S    -3.141429  1.672385 -0.416882
  S    -3.118239 -1.661857  3.938227
  S    -3.339045  1.856342  3.822931
