16  
    
  C     1.139315  0.230263  3.015672
  C     0.597308  3.732769  3.104390
  C    -0.020695 -0.220395  2.332330
  C    -0.494484  3.202952  2.306924
  N     2.230133  0.288413  2.231647
  N     1.642039  4.187160  2.401987
  N     0.109241 -0.364239  0.995919
  N    -0.121158  3.130037  1.047617
  N    -0.723834 -0.004377  4.886880
  N    -1.352986  3.041625  4.694716
  S    -1.475805 -0.320987  3.381731
  S    -1.899432  2.578332  3.175637
  S     1.732469 -0.020079  0.683552
  S     1.310897  3.867143  0.851730
  S     0.910902  0.502088  4.816114
  S     0.103744  3.776492  4.756031
