16  
    
  C    -1.476661 -1.225282  2.706215
  C    -1.682935  2.677621  2.367090
  C    -2.643484 -1.566232  1.950947
  C    -2.789769  2.097965  1.670469
  N    -0.412720 -0.787907  2.008469
  N    -0.591454  2.719292  1.635719
  N    -2.383072 -1.741597  0.656874
  N    -2.605820  1.837264  0.374493
  N    -3.470599 -1.421533  4.350648
  N    -3.541855  2.417936  4.174249
  S    -4.073687 -1.887271  2.818518
  S    -4.266177  2.148343  2.683044
  S    -0.827397 -1.162625  0.427712
  S    -1.036296  2.289757  0.103730
  S    -1.814681 -1.246377  4.406597
  S    -1.921382  2.838399  4.123714
