16  
    
  C    -2.990170 -1.319377  2.119392
  C    -3.197907  1.795036  1.978246
  C    -4.237071 -1.694355  1.489117
  C    -4.384011  1.377420  1.290593
  N    -1.919524 -1.176629  1.320690
  N    -2.065852  1.913499  1.264653
  N    -4.118549 -1.912092  0.200460
  N    -4.216443  1.356855 -0.039903
  N    -4.781849 -1.680080  4.040560
  N    -5.078309  1.620683  3.716622
  S    -5.543802 -1.985567  2.638656
  S    -5.801733  1.243058  2.225238
  S    -2.559537 -1.561681 -0.217801
  S    -2.636625  1.690407 -0.320944
  S    -3.219167 -1.074426  3.844421
  S    -3.427404  1.979010  3.712426
