16  
    
  C     1.565450  0.983151  3.235549
  C     1.883703  4.683940  3.271289
  C     0.382074  0.514629  2.565923
  C     0.697057  3.990929  2.729123
  N     2.619184  1.142610  2.442980
  N     2.954847  4.641842  2.424336
  N     0.551259  0.386490  1.233779
  N     0.850841  3.683262  1.413559
  N    -0.256468  0.600224  5.003352
  N     0.112179  4.535014  5.230726
  S    -0.913277  0.107649  3.575719
  S    -0.632004  4.104898  3.785456
  S     2.101509  0.757488  0.928262
  S     2.315532  4.138786  1.011170
  S     1.241207  1.222087  4.909513
  S     1.776276  4.870575  5.046889
