16  
    
  C    -0.220471 -0.395051  2.789583
  C     0.132635  3.566882  2.288288
  C    -1.365381 -0.785631  1.970609
  C    -1.072237  3.024361  1.664191
  N     0.840970 -0.083184  2.042265
  N     1.210324  3.671054  1.525970
  N    -1.091936 -0.969430  0.665194
  N    -0.960035  2.970374  0.342454
  N    -2.101222 -0.644321  4.466757
  N    -1.481883  2.870817  4.253320
  S    -2.752604 -0.937881  2.976938
  S    -2.386587  2.842598  2.809866
  S     0.507983 -0.496923  0.434727
  S     0.578527  3.502544 -0.046557
  S    -0.486712 -0.260124  4.524146
  S     0.118108  3.401338  4.041058
