16  
    
  C    -0.960422 -0.505823  2.435669
  C    -1.093694  3.027199  2.471560
  C    -2.058221 -1.033983  1.743673
  C    -2.354127  2.869927  1.750808
  N     0.106264 -0.202654  1.674919
  N    -0.048868  3.078576  1.625633
  N    -1.942889 -1.211078  0.431415
  N    -2.188878  2.449922  0.481015
  N    -2.680252 -1.144396  4.275639
  N    -2.933720  3.187362  4.278940
  S    -3.434944 -1.516284  2.807263
  S    -3.726337  3.020707  2.801102
  S    -0.347698 -0.699660  0.114758
  S    -0.583216  2.684152  0.132742
  S    -1.132313 -0.602679  4.168910
  S    -1.254407  3.334842  4.146531
