16  
    
  C    -3.047942 -1.250003  2.186686
  C    -3.130806  1.692647  2.060655
  C    -4.228668 -1.782755  1.568327
  C    -4.360846  1.419835  1.346676
  N    -1.998362 -1.242712  1.368367
  N    -2.162176  1.999957  1.202150
  N    -4.153172 -1.889398  0.228643
  N    -4.277610  1.333745  0.051407
  N    -4.790594 -1.627955  4.055028
  N    -5.089320  1.588667  3.784316
  S    -5.549478 -1.944418  2.611326
  S    -5.766202  1.254124  2.288914
  S    -2.577957 -1.566619 -0.193388
  S    -2.707792  1.735160 -0.310141
  S    -3.242479 -1.112188  3.912352
  S    -3.439962  1.940193  3.680442
