16  
    
  C     2.897065  1.448875  3.411776
  C     2.891551  5.127115  3.178676
  C     1.712397  0.923878  2.777899
  C     1.712737  4.412342  2.650120
  N     3.864366  1.758794  2.558457
  N     3.889009  5.299038  2.348625
  N     1.864501  0.782371  1.459818
  N     1.808427  4.239373  1.339447
  N     1.173931  1.356410  5.347861
  N     1.253160  5.013652  5.093833
  S     0.409212  0.749261  3.930445
  S     0.456151  4.177489  3.801388
  S     3.411462  1.452925  1.067940
  S     3.317578  4.849521  0.888135
  S     2.805038  1.658755  5.176188
  S     2.843914  5.471061  4.852883
