16  
    
  C     1.486243  0.975343  3.272378
  C     1.529162  4.383929  3.451038
  C     0.260520  0.454002  2.688461
  C     0.221392  4.066908  2.943042
  N     2.512544  1.124587  2.432261
  N     2.500802  4.391957  2.531772
  N     0.337199  0.154434  1.396166
  N     0.115790  4.072343  1.622405
  N    -0.241997  0.810130  5.181409
  N    -0.124006  4.690612  5.457337
  S    -1.084530  0.566715  3.806516
  S    -0.999707  4.196023  4.146017
  S     1.884439  0.609703  0.928640
  S     1.722589  4.135362  1.030047
  S     1.312199  1.344105  5.024823
  S     1.537207  4.844773  5.114919
