16  
    
  C    -1.249972 -0.296907  2.149588
  C    -1.156361  3.044339  2.259137
  C    -2.471472 -0.964449  1.598286
  C    -2.452058  2.767362  1.700601
  N    -0.279318 -0.240478  1.270518
  N    -0.232180  3.143124  1.300636
  N    -2.452599 -1.163595  0.276326
  N    -2.515189  2.740433  0.359900
  N    -2.945765 -0.732217  4.103841
  N    -2.790820  3.039266  4.211792
  S    -3.734788 -1.309624  2.740626
  S    -3.723562  2.703888  2.891011
  S    -0.881478 -0.800413 -0.214919
  S    -0.971595  2.971388 -0.172259
  S    -1.373854 -0.166949  3.856145
  S    -1.184823  3.326253  3.988957
