16  
    
  C     0.062203 -0.615438  2.441639
  C    -0.201920  3.129957  2.618475
  C    -1.248645 -0.879242  1.841691
  C    -1.446996  2.751626  2.036859
  N     1.066262 -0.560363  1.542170
  N     0.802731  3.354611  1.763075
  N    -1.166681 -1.048682  0.505201
  N    -1.359963  2.440771  0.759294
  N    -1.662495 -0.821404  4.416772
  N    -1.906085  2.862503  4.511356
  S    -2.472541 -1.271918  3.016298
  S    -2.646720  2.257564  3.179811
  S     0.370884 -0.868537  0.084770
  S     0.159562  2.935506  0.272164
  S    -0.118008 -0.390816  4.141209
  S    -0.409189  3.479492  4.348533
