16  
    
  C    -4.148280 -2.076646  1.831954
  C    -4.138583  1.337183  1.810483
  C    -5.466970 -2.168945  1.322997
  C    -5.392959  1.216630  1.054180
  N    -3.178045 -2.075152  0.899182
  N    -3.040933  1.259732  1.048868
  N    -5.556966 -2.429311  0.027415
  N    -5.243231  1.151822 -0.254948
  N    -5.668945 -2.164974  3.929293
  N    -6.053403  1.526755  3.485400
  S    -6.682542 -2.283447  2.603628
  S    -6.837032  1.272652  1.998075
  S    -3.990118 -2.458898 -0.526399
  S    -3.629388  1.155697 -0.552009
  S    -4.056131 -2.004886  3.527357
  S    -4.334812  1.598452  3.448688
