16  
    
  C     2.846513  1.533595  3.541573
  C     2.974870  5.156973  3.390048
  C     1.625556  0.899147  3.056146
  C     1.757973  4.709530  2.784199
  N     3.794330  1.677838  2.627453
  N     3.885509  5.630008  2.546648
  N     1.664964  0.562371  1.763975
  N     1.839530  4.630713  1.469129
  N     1.142804  1.378705  5.513779
  N     1.117683  5.052652  5.276258
  S     0.395794  0.634216  4.216896
  S     0.425073  4.325345  3.906210
  S     3.162590  1.025800  1.217606
  S     3.392436  5.182553  1.014643
  S     2.691088  1.902662  5.299108
  S     2.703279  5.385527  5.170123
