16  
    
  C    -1.640778 -1.188375  2.372515
  C    -1.823940  2.360782  2.397628
  C    -2.977598 -1.323934  1.834690
  C    -3.015146  1.886948  1.766973
  N    -0.655509 -1.120596  1.443307
  N    -0.756877  2.582326  1.645247
  N    -2.983791 -1.458271  0.501189
  N    -2.847730  1.732544  0.473678
  N    -3.315656 -1.044812  4.331312
  N    -3.668473  2.146155  4.238403
  S    -4.250222 -1.342165  2.991257
  S    -4.359789  1.681586  2.815943
  S    -1.437385 -1.295869 -0.021104
  S    -1.319738  2.236919  0.075794
  S    -1.682586 -0.736666  4.007101
  S    -2.076264  2.596467  4.145181
