16  
    
  C     1.105717  0.169126  2.916766
  C     0.762596  3.857471  3.146624
  C    -0.105080 -0.417907  2.494733
  C    -0.455855  3.332976  2.495998
  N     2.054111  0.313569  1.993846
  N     1.818279  3.875474  2.292789
  N    -0.095087 -0.775789  1.247972
  N    -0.441697  3.282305  1.153197
  N    -0.379077  0.045068  4.978208
  N    -0.837270  3.338016  5.076938
  S    -1.345124 -0.548919  3.700760
  S    -1.728994  3.203918  3.610607
  S     1.391056 -0.361704  0.610994
  S     1.169272  3.639147  0.724309
  S     1.178052  0.514125  4.604798
  S     0.730142  3.754215  4.909452
