16  
    
  C     1.992307  1.113481  2.986452
  C     2.285235  4.355245  3.048356
  C     0.811074  0.567724  2.402469
  C     1.076523  4.071897  2.296960
  N     2.993122  1.284206  2.157656
  N     3.424893  4.407809  2.328973
  N     0.928894  0.202470  1.130171
  N     1.323368  3.710994  1.052420
  N     0.174899  1.112161  4.922507
  N     0.219519  4.419927  4.632356
  S    -0.545490  0.605517  3.455650
  S    -0.357930  3.834877  3.254394
  S     2.453511  0.678653  0.693047
  S     2.884519  3.972720  0.817794
  S     1.850855  1.313755  4.751592
  S     1.870890  4.634676  4.752857
