16  
    
  C     2.783781  1.398967  3.664309
  C     2.945670  5.231696  3.650691
  C     1.556377  1.045009  3.044977
  C     1.691288  5.132341  2.907600
  N     3.801623  1.515067  2.779010
  N     4.008343  5.327745  2.864004
  N     1.626913  0.918909  1.729997
  N     1.845314  4.771017  1.637471
  N     0.984450  0.812106  5.536041
  N     1.125244  4.757555  5.347118
  S     0.235207  0.726127  4.078647
  S     0.363660  4.898373  3.909262
  S     3.219606  1.209805  1.313879
  S     3.433018  5.096944  1.332256
  S     2.514485  1.422223  5.439578
  S     2.725553  5.289882  5.362640
