16  
    
  C     2.399893  1.010681  3.350072
  C     2.335330  4.735212  3.391687
  C     1.225772  0.690686  2.576767
  C     1.201438  4.244827  2.682229
  N     3.463126  1.363727  2.620705
  N     3.325324  5.137001  2.640911
  N     1.367375  0.885155  1.246430
  N     1.430518  4.145772  1.387403
  N     0.569267  0.528645  5.126528
  N     0.667693  4.268577  5.131710
  S    -0.104073  0.415080  3.609420
  S    -0.096749  3.949497  3.711628
  S     2.903095  1.377800  1.067989
  S     2.941428  4.734324  1.093428
  S     2.213705  1.046385  5.062421
  S     2.177299  4.765445  5.103044
