16  
    
  C    -1.372659 -0.366953  2.031935
  C    -1.163201  3.126089  2.182184
  C    -2.569243 -0.960362  1.536022
  C    -2.471881  2.870850  1.671527
  N    -0.402498 -0.174296  1.102304
  N    -0.200553  3.306088  1.281246
  N    -2.458780 -1.288666  0.220017
  N    -2.494464  2.577975  0.384506
  N    -2.911611 -0.722687  4.097727
  N    -2.755265  2.970091  4.242433
  S    -3.746148 -1.231718  2.747349
  S    -3.707837  2.661607  2.904087
  S    -0.949963 -0.890424 -0.265176
  S    -0.979637  3.040568 -0.181592
  S    -1.356056 -0.159636  3.836905
  S    -1.147960  3.321160  3.918946
