16  
    
  C     3.433005  1.492997  3.621558
  C     3.051843  5.299503  3.412927
  C     2.188067  1.038182  3.121999
  C     1.935863  4.613643  2.740476
  N     4.286680  1.674747  2.618586
  N     4.089904  5.490268  2.621344
  N     2.140147  0.828950  1.816970
  N     2.130327  4.274856  1.505855
  N     1.831387  1.319970  5.627381
  N     1.237694  4.787022  5.171688
  S     0.868789  0.982383  4.285270
  S     0.602512  4.244164  3.730609
  S     3.589852  1.300563  1.211300
  S     3.594965  4.924125  1.099055
  S     3.394556  1.864645  5.295373
  S     2.732822  5.478144  5.057204
