16  
    
  C    -1.799796 -0.872749  2.158579
  C    -1.743005  2.272981  1.989288
  C    -3.066489 -1.289244  1.561582
  C    -2.994243  2.036797  1.258963
  N    -0.795349 -0.968872  1.261091
  N    -0.686460  2.521262  1.215247
  N    -3.076041 -1.545917  0.218359
  N    -2.788924  1.822824 -0.026528
  N    -3.470479 -1.028000  4.034316
  N    -3.612919  1.964482  3.773545
  S    -4.386417 -1.184318  2.663416
  S    -4.395438  1.943104  2.313696
  S    -1.509543 -1.348105 -0.257072
  S    -1.168392  2.096865 -0.338915
  S    -1.812278 -0.974735  3.884609
  S    -2.019213  2.385590  3.696600
