16  
    
  C    -4.236695 -1.955049  1.834648
  C    -4.171176  1.597629  1.832264
  C    -5.451343 -2.480086  1.213359
  C    -5.342991  0.909996  1.442328
  N    -3.218035 -1.868505  0.974718
  N    -3.172133  1.737443  0.985546
  N    -5.312233 -2.799312 -0.062156
  N    -5.321630  0.551766  0.184018
  N    -5.986201 -2.119278  3.744835
  N    -5.904559  1.782208  3.723540
  S    -6.781053 -2.311262  2.302645
  S    -6.656152  0.949284  2.522884
  S    -3.743733 -2.445311 -0.507299
  S    -3.820349  1.065128 -0.432430
  S    -4.514901 -1.469967  3.510765
  S    -4.290726  1.979627  3.543891
