16  
    
  C    -2.965470 -1.375952  2.122394
  C    -3.201576  1.853979  1.977779
  C    -4.220931 -1.675799  1.481967
  C    -4.380061  1.405521  1.208506
  N    -1.941306 -1.148626  1.280138
  N    -2.062235  1.879031  1.264658
  N    -4.096628 -1.926179  0.155845
  N    -4.177628  1.355358 -0.099869
  N    -4.720789 -1.682962  4.033534
  N    -5.074253  1.649746  3.674824
  S    -5.553735 -2.005160  2.627941
  S    -5.809638  1.228774  2.225612
  S    -2.532453 -1.562120 -0.224151
  S    -2.586867  1.660995 -0.333462
  S    -3.190510 -1.067534  3.810677
  S    -3.447202  1.992043  3.719193
