16  
    
  C    -4.342370 -2.425438  1.540117
  C    -4.363386  1.574773  1.972290
  C    -5.490686 -2.882382  0.779127
  C    -5.577255  1.101569  1.365220
  N    -3.282402 -2.264704  0.725267
  N    -3.381043  1.795964  1.104777
  N    -5.356212 -2.919504 -0.528081
  N    -5.486201  0.782047  0.065448
  N    -6.188043 -2.710848  3.241068
  N    -6.017321  1.183042  3.921548
  S    -6.829002 -3.326135  1.842333
  S    -6.840329  0.684710  2.553898
  S    -3.746670 -2.602313 -0.831022
  S    -3.879522  1.240586 -0.414153
  S    -4.570052 -2.289579  3.288842
  S    -4.501191  1.808086  3.694747
