16  
    
  C     1.358884  0.716363  3.151254
  C     1.027420  4.455312  2.916701
  C     0.059986  0.333679  2.632541
  C    -0.055829  3.825098  2.163493
  N     2.369554  0.749805  2.296472
  N     2.088177  4.710718  2.181853
  N     0.130573  0.086251  1.322956
  N     0.206653  3.764134  0.869149
  N    -0.344147  0.713329  5.199388
  N    -0.775940  3.850766  4.616360
  S    -1.235496  0.256997  3.837251
  S    -1.451823  3.535620  3.126953
  S     1.718321  0.381791  0.825875
  S     1.797358  4.291750  0.598116
  S     1.286085  1.180054  4.831702
  S     0.795580  4.340623  4.666031
