16  
    
  C    -3.352243 -2.116274  1.904990
  C    -3.740481  1.952485  1.964330
  C    -4.454507 -2.821299  1.259858
  C    -4.662906  1.050133  1.291673
  N    -2.272212 -2.009390  1.145229
  N    -2.733883  2.412071  1.219788
  N    -4.274861 -3.112704 -0.055747
  N    -4.376931  0.758442  0.014444
  N    -5.160776 -2.356580  3.713874
  N    -5.627708  1.409527  3.726372
  S    -5.875557 -2.913135  2.275243
  S    -6.000460  0.584294  2.383787
  S    -2.715669 -2.570627 -0.351775
  S    -2.986779  1.646462 -0.325207
  S    -3.630166 -1.672330  3.534830
  S    -4.248657  2.269900  3.558655
