16  
    
  C    -4.564659 -2.249628  1.488705
  C    -4.395586  1.374376  1.902287
  C    -5.610446 -2.875015  0.748372
  C    -5.588321  0.750920  1.351536
  N    -3.523106 -1.818465  0.765113
  N    -3.483479  1.781151  1.000809
  N    -5.420836 -2.887968 -0.583870
  N    -5.600056  0.720366  0.012973
  N    -6.389976 -2.987397  3.214707
  N    -5.925114  0.862990  3.950751
  S    -7.029162 -3.277482  1.679039
  S    -6.809503  0.459209  2.560438
  S    -3.887721 -2.194780 -0.802096
  S    -4.115739  1.467158 -0.502796
  S    -4.815398 -2.418835  3.237466
  S    -4.432673  1.554073  3.729554
