16  
    
  C     3.641593  1.874120  3.634828
  C     3.204743  5.240152  3.499817
  C     2.438559  1.431024  3.017803
  C     1.968228  4.828371  2.835502
  N     4.624340  2.032061  2.715906
  N     4.225862  5.532782  2.665956
  N     2.498067  1.326274  1.692409
  N     2.159645  4.559834  1.558720
  N     1.999896  1.316879  5.540300
  N     1.532400  5.070652  5.339465
  S     1.056848  1.220747  4.139787
  S     0.741002  4.443363  3.982874
  S     4.048216  1.730046  1.249623
  S     3.683844  5.183123  1.201539
  S     3.462900  2.146404  5.308184
  S     3.169181  5.367806  5.136066
