16  
    
  C     2.814612  1.408810  3.692922
  C     2.950288  5.245360  3.649988
  C     1.575127  1.062501  3.026888
  C     1.732879  5.085029  2.955048
  N     3.862194  1.535648  2.866095
  N     4.025096  5.304277  2.872848
  N     1.658142  0.980134  1.710927
  N     1.835034  4.828660  1.659635
  N     0.977091  0.745888  5.484168
  N     1.097391  4.827888  5.387723
  S     0.212500  0.689083  4.038519
  S     0.343804  4.943690  3.905290
  S     3.192898  1.201972  1.307717
  S     3.396217  5.025783  1.316985
  S     2.504691  1.376828  5.412207
  S     2.758324  5.267900  5.363331
