16  
    
  C    -4.177095 -2.314293  1.661426
  C    -4.298288  1.763137  1.900426
  C    -5.473588 -2.619035  1.029662
  C    -5.411266  1.111823  1.299054
  N    -3.219013 -2.273574  0.777784
  N    -3.197300  1.700396  1.184800
  N    -5.357306 -2.998280 -0.271159
  N    -5.279530  0.698224  0.054356
  N    -5.981533 -2.094435  3.566724
  N    -6.057073  1.466504  3.740807
  S    -6.790040 -2.716631  2.190923
  S    -6.826733  0.987012  2.269342
  S    -3.754700 -2.793837 -0.720089
  S    -3.613926  0.968452 -0.259833
  S    -4.306161 -1.844002  3.365056
  S    -4.506128  2.159129  3.546443
