16  
    
  C    -1.703066 -1.067737  2.608160
  C    -1.829158  2.475062  2.422743
  C    -2.893244 -1.443280  1.925952
  C    -3.086233  2.378325  1.752663
  N    -0.584869 -1.008333  1.858016
  N    -0.763232  2.608122  1.633038
  N    -2.774850 -1.550104  0.577797
  N    -2.998194  2.259787  0.434299
  N    -3.479727 -1.533266  4.407620
  N    -3.618223  2.364281  4.295937
  S    -4.300856 -1.809579  2.954026
  S    -4.362674  2.024931  2.850282
  S    -1.150079 -1.248638  0.285061
  S    -1.346308  2.377353  0.103721
  S    -1.911866 -0.939970  4.289087
  S    -1.991810  2.545413  4.190751
