16  
    
  C    -1.443533 -1.057022  2.487097
  C    -1.473284  2.559496  2.261926
  C    -2.518014 -1.564260  1.676272
  C    -2.565711  1.979364  1.603627
  N    -0.338571 -0.783104  1.849931
  N    -0.433091  2.971653  1.504904
  N    -2.186814 -1.658519  0.415003
  N    -2.322388  1.730410  0.319366
  N    -3.463220 -1.489128  4.172070
  N    -3.420636  2.453457  3.940088
  S    -3.980619 -1.933893  2.632889
  S    -3.943552  1.740393  2.562310
  S    -0.657580 -1.077171  0.258687
  S    -0.798733  2.332325 -0.014344
  S    -1.816947 -1.004250  4.220922
  S    -1.872122  3.023966  3.921435
