16  
    
  C    -4.178070 -2.261424  1.971070
  C    -4.197567  1.485629  1.897595
  C    -5.516819 -2.394028  1.505070
  C    -5.445302  1.169071  1.145890
  N    -3.219779 -2.049714  1.067239
  N    -3.139472  1.418370  1.098727
  N    -5.551559 -2.520031  0.159870
  N    -5.254223  1.088204 -0.192492
  N    -5.778169 -2.206989  4.066078
  N    -6.033765  1.529872  3.622225
  S    -6.769484 -2.341631  2.743074
  S    -6.866469  1.217484  2.165146
  S    -4.018477 -2.228444 -0.379476
  S    -3.650537  1.176502 -0.406468
  S    -4.153717 -1.957171  3.733190
  S    -4.372358  1.485450  3.575157
