16  
    
  C     1.486918  0.978196  3.275005
  C     1.529721  4.371983  3.457398
  C     0.258393  0.457936  2.687197
  C     0.214547  4.075919  2.943063
  N     2.514974  1.119470  2.434575
  N     2.481934  4.399691  2.533033
  N     0.334683  0.157012  1.404099
  N     0.106683  4.067576  1.624209
  N    -0.232437  0.811701  5.186903
  N    -0.120761  4.689399  5.452565
  S    -1.083870  0.566215  3.809655
  S    -0.995815  4.195084  4.148599
  S     1.884825  0.603618  0.933480
  S     1.718559  4.140478  1.028093
  S     1.307269  1.341719  5.022819
  S     1.533911  4.842524  5.114136
