16  
    
  C     2.279185  1.054795  3.454575
  C     2.224391  4.809720  3.154056
  C     1.008116  0.680165  2.853508
  C     0.999410  4.328267  2.526927
  N     3.258919  1.247130  2.590272
  N     3.245903  5.013545  2.314049
  N     0.987272  0.629218  1.540950
  N     0.961630  4.418232  1.184852
  N     0.461536  0.842109  5.381988
  N     0.506401  4.283208  5.082971
  S    -0.293343  0.481344  3.933657
  S    -0.291212  4.021571  3.676521
  S     2.560622  1.020193  1.040520
  S     2.487431  4.963061  0.795556
  S     2.030013  1.361903  5.183486
  S     2.086894  4.687661  4.911605
