16  
    
  C    -4.243259 -2.528773  1.567891
  C    -4.284593  1.607959  2.003559
  C    -5.457144 -3.013960  0.933204
  C    -5.366487  0.925866  1.378082
  N    -3.227710 -2.321965  0.689843
  N    -3.190339  1.751088  1.240349
  N    -5.302372 -3.271173 -0.356563
  N    -5.149427  0.679496  0.061977
  N    -5.972613 -2.566184  3.473419
  N    -6.229496  1.573534  3.742326
  S    -6.796875 -2.895771  2.063583
  S    -6.860059  0.968106  2.356971
  S    -3.773969 -2.826086 -0.790203
  S    -3.655200  1.163566 -0.298091
  S    -4.335733 -2.064246  3.282347
  S    -4.610023  1.955147  3.650727
