16  
    
  C     2.308938  0.948178  3.424762
  C     1.944253  4.815975  2.992096
  C     1.028509  0.630448  2.866573
  C     0.844670  4.081867  2.374284
  N     3.336367  1.031709  2.553063
  N     2.972207  5.078723  2.155846
  N     1.127278  0.405118  1.533864
  N     0.993577  4.097604  1.039957
  N     0.589732  0.820077  5.460426
  N     0.302097  4.330361  4.800298
  S    -0.317060  0.666618  4.024563
  S    -0.534758  4.067648  3.456579
  S     2.654170  0.663388  1.086808
  S     2.549725  4.597174  0.658319
  S     2.257443  1.009578  5.179396
  S     1.809985  5.026147  4.736730
