16  
    
  C     1.611230  0.813990  3.265693
  C     2.021921  4.595188  3.273781
  C     0.573192  0.169718  2.508513
  C     0.808079  4.044557  2.676733
  N     2.665239  1.226761  2.544761
  N     3.035241  4.609229  2.446841
  N     0.864567  0.012955  1.235453
  N     0.880393  3.933751  1.361748
  N    -0.287245  0.381243  4.997705
  N     0.310201  4.253579  5.215928
  S    -0.814643 -0.143874  3.475649
  S    -0.450252  3.708201  3.839019
  S     2.400210  0.701831  0.985866
  S     2.479310  4.365646  0.899662
  S     1.295632  0.926423  4.942521
  S     1.843836  4.924940  4.936671
