16  
    
  C     0.683065  0.283301  3.032873
  C     0.794420  3.672712  2.806976
  C    -0.631855 -0.024466  2.383152
  C    -0.560108  3.366560  2.269925
  N     1.640750  0.427348  2.149081
  N     1.673398  4.063992  1.885297
  N    -0.551937 -0.317777  1.091778
  N    -0.509819  3.328430  0.958615
  N    -1.023827  0.282899  4.890107
  N    -1.009199  3.559670  4.746770
  S    -1.897923 -0.060797  3.505088
  S    -1.870712  3.236344  3.420466
  S     1.033175 -0.001662  0.685620
  S     0.986045  3.683296  0.448474
  S     0.657802  0.485797  4.751796
  S     0.650796  3.845404  4.561150
