16  
    
  C     2.898138  1.601951  3.450535
  C     2.890452  5.310192  3.232445
  C     1.709029  0.951373  2.926312
  C     1.790968  4.464583  2.741072
  N     3.883638  1.767145  2.567565
  N     3.848897  5.553964  2.297339
  N     1.825097  0.631620  1.639221
  N     1.815509  4.346278  1.410527
  N     1.167674  1.349640  5.426954
  N     1.342299  4.629597  5.206743
  S     0.489581  0.632437  4.073997
  S     0.509165  4.174499  3.870329
  S     3.286326  1.128982  1.096671
  S     3.250661  4.869095  0.865704
  S     2.722190  1.958854  5.187027
  S     2.771236  5.512136  4.977648
