16  
    
  C    -5.334680 -2.110430  1.620930
  C    -5.356853  1.140343  1.416295
  C    -6.580416 -2.540930  1.012180
  C    -6.596237  0.829615  0.748097
  N    -4.339905 -1.963871  0.731181
  N    -4.325072  1.238075  0.620199
  N    -6.443861 -2.836632 -0.257951
  N    -6.530782  0.521545 -0.563749
  N    -7.040951 -2.577535  3.497534
  N    -7.037899  1.013547  3.312731
  S    -7.928512 -2.841880  2.112261
  S    -7.894538  0.625093  1.918672
  S    -4.900595 -2.588300 -0.691794
  S    -4.864695  0.783460 -0.916459
  S    -5.478086 -2.021521  3.375084
  S    -5.458625  1.372052  3.179148
