16  
    
  C    -5.801037 -2.932819  1.267381
  C    -5.868840  0.831528  1.551694
  C    -6.922111 -3.668227  0.671796
  C    -7.024390  0.143587  0.989389
  N    -4.874021 -2.517236  0.425693
  N    -4.881386  1.205591  0.706630
  N    -6.807811 -3.829435 -0.645193
  N    -6.924816  0.062591 -0.328252
  N    -7.423165 -3.156561  3.214790
  N    -7.591594  0.437708  3.426320
  S    -8.210833 -3.923545  1.933600
  S    -8.316093 -0.101899  2.072568
  S    -5.370065 -3.009705 -1.092237
  S    -5.496833  0.823804 -0.826400
  S    -5.778759 -2.844292  2.998483
  S    -6.033942  1.067416  3.263366
