16  
    
  C    -1.341457 -0.950013  2.253670
  C    -1.554866  2.840404  2.012765
  C    -2.539459 -1.372146  1.501475
  C    -2.691560  2.223363  1.340778
  N    -0.267068 -0.767841  1.548311
  N    -0.486127  3.125798  1.238265
  N    -2.308781 -1.370309  0.209676
  N    -2.346827  1.949060  0.079837
  N    -3.222413 -1.462042  4.074250
  N    -3.289463  2.404157  3.794904
  S    -3.933124 -1.643778  2.533672
  S    -3.864180  1.655240  2.442763
  S    -0.688038 -1.018504 -0.041685
  S    -0.894450  2.603938 -0.274751
  S    -1.684361 -0.786271  3.967230
  S    -1.905539  3.302320  3.677547
