16  
    
  C     2.802338  1.599456  3.475662
  C     2.878440  5.220380  3.321885
  C     1.646484  0.936012  2.916092
  C     1.658703  4.680922  2.698027
  N     3.803877  1.682329  2.618012
  N     3.817254  5.524365  2.425708
  N     1.744829  0.591398  1.616419
  N     1.827799  4.284163  1.432769
  N     1.307783  1.232415  5.494386
  N     1.383843  4.682929  5.239792
  S     0.443954  0.628605  4.200935
  S     0.488461  4.206511  3.846755
  S     3.323348  1.075884  1.180843
  S     3.287580  5.032460  0.974127
  S     2.683424  2.040557  5.146666
  S     2.786683  5.510447  4.976038
