16  
    
  C    -4.676952 -2.306710  1.522754
  C    -4.453814  1.308641  1.883390
  C    -5.823404 -2.793742  0.744316
  C    -5.657722  0.891821  1.237895
  N    -3.651642 -1.931846  0.769622
  N    -3.507605  1.754610  1.036940
  N    -5.663234 -2.649771 -0.541788
  N    -5.494768  0.759720 -0.058465
  N    -6.404614 -2.916446  3.222887
  N    -6.099789  0.772490  3.779658
  S    -7.141865 -3.216421  1.779904
  S    -6.836988  0.271907  2.440601
  S    -4.148019 -2.122194 -0.816057
  S    -4.019406  1.355697 -0.544714
  S    -4.876306 -2.308682  3.226673
  S    -4.511520  1.171966  3.723386
