16  
    
  C    -5.401004 -2.487263  1.360057
  C    -5.458624  1.219461  1.261378
  C    -6.692448 -2.815618  0.760195
  C    -6.560292  0.590255  0.628186
  N    -4.399288 -2.291029  0.533047
  N    -4.396364  1.461408  0.487111
  N    -6.623512 -3.063796 -0.563017
  N    -6.424122  0.529503 -0.700092
  N    -6.953345 -2.959959  3.345496
  N    -7.132444  0.639661  3.119253
  S    -7.825404 -3.234326  1.977821
  S    -7.786070  0.091959  1.725810
  S    -5.020236 -2.618987 -1.009758
  S    -4.889792  1.016122 -1.057049
  S    -5.437931 -2.273988  3.086255
  S    -5.611312  1.171177  3.007980
