16  
    
  C    -3.001542 -1.838257  2.101741
  C    -3.352810  1.515701  2.040311
  C    -4.283559 -2.115112  1.486193
  C    -4.667920  1.333968  1.493344
  N    -1.955847 -1.931063  1.248693
  N    -2.341694  1.744862  1.206372
  N    -4.230453 -2.056098  0.151396
  N    -4.641546  1.150307  0.176616
  N    -4.637138 -1.972107  4.058870
  N    -5.026336  1.629364  4.003523
  S    -5.553824 -2.131653  2.704059
  S    -5.889736  1.118801  2.661362
  S    -2.610536 -1.997672 -0.255011
  S    -3.110888  1.445514 -0.279953
  S    -3.014051 -1.604277  3.868063
  S    -3.355625  1.751146  3.768380
