16  
    
  C     3.643227  1.663878  3.631447
  C     3.190315  5.204725  3.433647
  C     2.365342  1.290526  3.045836
  C     2.050750  4.543040  2.837767
  N     4.530393  1.901461  2.686471
  N     4.104645  5.512054  2.555999
  N     2.261549  1.227793  1.696658
  N     2.054097  4.554963  1.488864
  N     2.015756  1.308028  5.635718
  N     1.325315  5.156789  5.270163
  S     1.133675  1.080935  4.240620
  S     0.678537  4.368130  3.951819
  S     3.808004  1.702230  1.220524
  S     3.614298  5.098068  1.048775
  S     3.535421  1.954868  5.364639
  S     2.938640  5.423564  5.217298
