16  
    
  C    -2.717062 -1.562542  2.094359
  C    -2.432357  2.262622  2.126733
  C    -3.971026 -1.981157  1.562489
  C    -3.695436  2.085323  1.512780
  N    -1.745723 -1.412384  1.219234
  N    -1.385952  2.344724  1.267086
  N    -3.984758 -2.051068  0.244115
  N    -3.630421  1.850240  0.201994
  N    -4.417377 -1.628710  4.025242
  N    -4.171899  1.965949  4.036081
  S    -5.220079 -2.146120  2.666032
  S    -4.997954  1.853987  2.637278
  S    -2.484798 -1.660860 -0.237712
  S    -1.995383  1.995410 -0.219318
  S    -2.784237 -1.435953  3.861782
  S    -2.585667  2.339782  3.910294
