16  
    
  C     2.771213  1.370738  3.661971
  C     2.964089  5.142019  3.575424
  C     1.555014  0.843428  3.112710
  C     1.740064  4.922788  2.855913
  N     3.714242  1.626777  2.760841
  N     3.974471  5.552566  2.801255
  N     1.621854  0.651218  1.801214
  N     1.894422  4.833864  1.521500
  N     1.046717  1.401561  5.516621
  N     1.089403  4.864250  5.376422
  S     0.225698  0.726744  4.230863
  S     0.337250  4.612030  3.904863
  S     3.162198  1.177046  1.355544
  S     3.507708  5.262574  1.246547
  S     2.672163  1.571908  5.311297
  S     2.675077  5.352452  5.269833
