16  
    
  C     2.060190  0.822495  3.081123
  C     2.180028  4.572027  3.061433
  C     0.781822  0.684180  2.427755
  C     1.054891  3.963654  2.316106
  N     3.110275  0.565942  2.276280
  N     3.233039  4.573331  2.254025
  N     0.856100  0.429749  1.106698
  N     1.261720  3.577950  1.047139
  N     0.212335  1.038820  4.946660
  N     0.274771  4.397803  4.706305
  S    -0.546997  0.571577  3.529121
  S    -0.427330  3.976658  3.302779
  S     2.449944  0.226991  0.804879
  S     2.764262  4.042962  0.759937
  S     1.960887  1.220247  4.764158
  S     1.881981  4.828458  4.790812
