16  
    
  C     2.546504  1.212119  3.368986
  C     2.786540  5.099543  3.748326
  C     1.458423  0.608937  2.654846
  C     1.529109  4.629133  3.191778
  N     3.598685  1.357665  2.553555
  N     3.758831  5.179216  2.818143
  N     1.691730  0.291827  1.384405
  N     1.559846  4.229546  1.917137
  N     0.552030  0.882816  5.052462
  N     1.161685  4.943804  5.642246
  S     0.008134  0.533040  3.491892
  S     0.325456  4.308539  4.362172
  S     3.233574  0.827648  1.082843
  S     3.075669  4.579986  1.432015
  S     2.168961  1.384878  5.072515
  S     2.604748  5.644897  5.417106
