16  
    
  C    -3.960196 -1.938458  1.686460
  C    -3.613106  1.988262  1.792244
  C    -5.185672 -2.422087  1.127945
  C    -4.815406  1.416054  1.150137
  N    -2.934366 -1.681676  0.872480
  N    -2.645073  2.275606  0.925603
  N    -5.054707 -2.531155 -0.194236
  N    -4.771097  1.362756 -0.192540
  N    -5.606026 -2.454454  3.625746
  N    -5.159743  1.206909  3.691297
  S    -6.481943 -2.830461  2.224635
  S    -6.077136  1.187477  2.371267
  S    -3.479563 -2.114879 -0.647324
  S    -3.248731  1.954376 -0.644231
  S    -4.055220 -1.907220  3.448646
  S    -3.796927  2.072846  3.535584
