16  
    
  C    -5.374670 -2.411585  1.524228
  C    -5.343041  1.005755  1.380950
  C    -6.600600 -2.798869  0.855198
  C    -6.470946  0.472839  0.741595
  N    -4.440254 -2.020764  0.640694
  N    -4.391143  1.335820  0.503935
  N    -6.479625 -2.980194 -0.462389
  N    -6.385367  0.397774 -0.584277
  N    -7.108424 -2.534760  3.392212
  N    -7.108986  0.901709  3.154128
  S    -7.930211 -2.954684  2.006960
  S    -7.796163  0.295410  1.833743
  S    -5.002555 -2.359674 -0.889171
  S    -4.892942  0.967216 -0.989891
  S    -5.510694 -2.143545  3.225284
  S    -5.513872  1.318332  3.094263
