16  
    
  C    -5.784399 -3.111412  1.586860
  C    -6.038644  0.741403  1.388227
  C    -6.935532 -3.459792  0.805331
  C    -7.215363  0.182982  0.837055
  N    -4.650907 -2.939087  0.918871
  N    -5.242567  1.270507  0.456008
  N    -6.721048 -3.596715 -0.487441
  N    -7.231260  0.138412 -0.483984
  N    -7.755765 -3.102839  3.237965
  N    -7.690411  0.263138  3.397457
  S    -8.401680 -3.486380  1.723602
  S    -8.425125 -0.287536  2.014157
  S    -5.084777 -3.304017 -0.700746
  S    -5.877262  0.956133 -1.027373
  S    -6.090904 -3.008092  3.306161
  S    -6.139460  0.891982  3.088227
