16  
    
  C    -1.890533 -0.998568  2.380299
  C    -1.839122  2.318162  2.653649
  C    -3.097141 -1.590440  1.760430
  C    -3.038371  1.981465  1.944513
  N    -0.884209 -0.873505  1.555913
  N    -0.906045  2.795698  1.817671
  N    -3.002733 -1.749630  0.435238
  N    -2.939293  1.841591  0.622654
  N    -3.588663 -1.138084  4.296965
  N    -3.734807  2.080457  4.396265
  S    -4.401997 -1.523037  2.943963
  S    -4.515127  1.906828  2.928868
  S    -1.421541 -1.237828  0.020527
  S    -1.394157  2.401959  0.293762
  S    -1.974378 -0.885158  4.123184
  S    -2.084478  2.410518  4.345640
