16  
    
  C    -1.035906 -0.765151  2.214676
  C    -0.759938  2.962345  2.535787
  C    -2.223052 -1.266837  1.640935
  C    -2.003570  2.463285  1.925166
  N     0.046271 -0.699343  1.464246
  N     0.323521  3.000397  1.727758
  N    -2.072261 -1.704597  0.424766
  N    -1.857110  2.508020  0.580525
  N    -2.910813 -0.636052  4.016110
  N    -2.498989  2.858688  4.353574
  S    -3.510789 -1.593015  2.796908
  S    -3.314782  2.432595  3.010431
  S    -0.448779 -1.324223 -0.012266
  S    -0.257945  2.698889  0.212094
  S    -1.264381 -0.253839  3.897171
  S    -0.937396  3.280335  4.233268
