16  
    
  C     1.815700  0.552726  3.075821
  C     1.979228  4.379600  3.402176
  C     0.538594  0.209454  2.439073
  C     0.778545  3.982107  2.735361
  N     2.785671  0.774558  2.235624
  N     2.994929  4.539762  2.551796
  N     0.575733  0.192117  1.127797
  N     0.751641  4.151175  1.423994
  N     0.015180  0.227256  4.922094
  N     0.222997  3.991344  5.259717
  S    -0.714938 -0.118497  3.532306
  S    -0.573206  3.694058  3.777980
  S     2.196725  0.552852  0.687308
  S     2.346524  4.520795  0.990678
  S     1.635732  0.476283  4.822360
  S     1.818477  4.315014  5.099015
