16  
    
  C    -0.031627 -0.699364  2.487774
  C    -0.206184  3.020910  2.634115
  C    -1.207659 -1.178985  1.890220
  C    -1.545495  2.691055  2.059475
  N     0.965139 -0.547143  1.650570
  N     0.735461  3.321544  1.729713
  N    -1.143514 -1.347924  0.585135
  N    -1.448250  2.462632  0.755932
  N    -1.653678 -0.699501  4.443491
  N    -1.869154  2.892633  4.576760
  S    -2.516698 -1.185276  3.058523
  S    -2.759562  2.382522  3.279487
  S     0.383612 -0.948976  0.182684
  S     0.064584  2.984307  0.251807
  S    -0.051709 -0.340639  4.240681
  S    -0.324713  3.373350  4.297883
