16  
    
  C     2.992457  1.508110  3.385443
  C     2.977057  5.176591  3.281889
  C     1.761859  1.302111  2.713169
  C     1.788755  4.654807  2.577283
  N     4.022990  1.583447  2.553128
  N     4.085201  5.209441  2.539780
  N     1.830407  1.256803  1.372456
  N     1.957412  4.593701  1.248982
  N     1.210498  1.215756  5.236306
  N     1.180095  4.995210  5.045843
  S     0.426004  0.961203  3.807675
  S     0.402988  4.558872  3.642204
  S     3.491248  1.400579  1.037660
  S     3.627713  4.745144  1.029533
  S     2.783921  1.579825  5.073652
  S     2.780111  5.296475  4.930412
