16  
    
  C    -3.191711 -2.047928  1.920345
  C    -3.705246  1.851743  2.055434
  C    -4.359557 -2.608113  1.276218
  C    -4.730980  1.092673  1.327963
  N    -2.152056 -1.966418  1.104628
  N    -2.718758  2.156002  1.259239
  N    -4.292993 -2.790003 -0.046481
  N    -4.373191  0.744691  0.111630
  N    -5.062661 -2.178731  3.710865
  N    -5.613061  1.510893  3.661153
  S    -5.715262 -2.870007  2.375976
  S    -6.101703  0.623538  2.233536
  S    -2.713932 -2.446410 -0.429514
  S    -2.946485  1.527786 -0.222309
  S    -3.553040 -1.520947  3.513436
  S    -4.041746  2.186167  3.703272
