16  
    
  C     2.409172  1.000863  3.325806
  C     2.350325  4.698677  3.393579
  C     1.223221  0.691550  2.568323
  C     1.190900  4.268244  2.676913
  N     3.484622  1.351283  2.639326
  N     3.337657  5.132589  2.667868
  N     1.367000  0.901832  1.240292
  N     1.450848  4.115963  1.397296
  N     0.586549  0.539124  5.112020
  N     0.640854  4.268280  5.140275
  S    -0.095932  0.403979  3.610740
  S    -0.094053  3.952563  3.711158
  S     2.919687  1.374386  1.061592
  S     2.952063  4.747379  1.107381
  S     2.215339  1.046325  5.043894
  S     2.187140  4.781628  5.095015
