16  
    
  C     1.376558  0.539128  2.993456
  C     0.930208  4.118818  2.523595
  C     0.186157  0.198647  2.236568
  C    -0.141972  3.425159  1.885516
  N     2.554532  0.410247  2.306582
  N     2.092309  4.225374  1.840169
  N     0.428696 -0.143495  0.962848
  N     0.048343  3.263730  0.593890
  N    -0.561301  0.722235  4.768632
  N    -0.979938  3.677035  4.315513
  S    -1.205959  0.332123  3.244844
  S    -1.626184  3.233279  2.838188
  S     2.066278 -0.033479  0.776629
  S     1.597308  3.816570  0.268521
  S     1.121816  0.960070  4.666698
  S     0.603159  4.121949  4.263248
