16  
    
  C     2.027915  1.186900  3.026387
  C     2.207998  4.405803  3.004388
  C     0.806344  0.698260  2.454300
  C     1.053449  3.830263  2.340100
  N     3.050892  1.266748  2.202237
  N     3.296880  4.531355  2.250453
  N     0.926328  0.409604  1.162564
  N     1.263122  3.696870  1.057876
  N     0.241038  0.993934  4.939214
  N     0.270098  4.310459  4.794443
  S    -0.538801  0.505821  3.605702
  S    -0.370375  3.892299  3.262579
  S     2.486013  0.754729  0.724879
  S     2.900364  3.972672  0.719875
  S     1.829792  1.368142  4.766544
  S     1.912431  4.560276  4.738583
