16  
    
  C    -2.850174 -1.520569  2.013986
  C    -2.416878  1.960323  2.016231
  C    -4.059890 -2.124042  1.451333
  C    -3.720844  1.928366  1.432855
  N    -1.873781 -1.357468  1.097949
  N    -1.426362  1.938427  1.129512
  N    -4.055063 -2.133008  0.105853
  N    -3.736777  1.630740  0.138167
  N    -4.535860 -2.035927  3.914345
  N    -4.051237  2.212646  3.927305
  S    -5.333158 -2.543478  2.565332
  S    -4.989381  2.115875  2.574526
  S    -2.555758 -1.625910 -0.382896
  S    -2.100360  1.609239 -0.312412
  S    -2.916468 -1.593366  3.737421
  S    -2.425341  2.383639  3.771922
