16  
    
  C    -2.894302 -1.639547  1.997348
  C    -2.411270  1.992069  2.039216
  C    -4.187750 -1.977731  1.432243
  C    -3.719872  1.756051  1.443260
  N    -1.884169 -1.347704  1.166046
  N    -1.370074  1.837463  1.204152
  N    -4.066430 -2.152200  0.092159
  N    -3.651331  1.675445  0.096358
  N    -4.379943 -2.040119  4.027316
  N    -4.097104  2.270883  4.035714
  S    -5.303073 -2.442542  2.627867
  S    -4.952437  2.117150  2.629852
  S    -2.522882 -1.690770 -0.318699
  S    -2.066746  1.730781 -0.338164
  S    -2.838073 -1.561969  3.698944
  S    -2.427994  2.374131  3.720526
