16  
    
  C    -4.486924 -2.432081  1.543082
  C    -4.348342  1.463112  1.914958
  C    -5.620443 -2.894492  0.708361
  C    -5.497868  0.807717  1.361712
  N    -3.539660 -1.888019  0.811052
  N    -3.450545  1.775474  0.998592
  N    -5.348141 -2.963513 -0.602174
  N    -5.527705  0.807405  0.021848
  N    -6.316288 -3.005446  3.190375
  N    -5.965530  0.873128  4.016771
  S    -7.020211 -3.258077  1.650958
  S    -6.823378  0.518345  2.613155
  S    -3.870827 -2.226132 -0.788396
  S    -4.133065  1.417604 -0.514234
  S    -4.739012 -2.369956  3.261753
  S    -4.456748  1.589133  3.678309
