16  
    
  C     1.175536  0.180035  2.955152
  C     0.705769  3.813645  3.172669
  C    -0.076546 -0.401947  2.443914
  C    -0.500267  3.352146  2.513696
  N     2.117161  0.327173  2.036401
  N     1.749073  4.077894  2.424670
  N     0.031186 -0.834551  1.165639
  N    -0.354931  3.349892  1.210634
  N    -0.486644  0.198560  4.920047
  N    -1.008646  3.234587  5.025609
  S    -1.296943 -0.494456  3.647613
  S    -1.866983  2.988395  3.537209
  S     1.552868 -0.348456  0.599601
  S     1.244326  3.759783  0.870186
  S     1.066650  0.597137  4.698208
  S     0.551196  3.621153  4.854541
