16  
    
  C     0.827070  0.355738  2.864852
  C     0.619384  3.610242  2.717966
  C    -0.402191 -0.235061  2.256001
  C    -0.640619  3.217775  2.126013
  N     1.764514  0.573189  1.997636
  N     1.582670  3.796156  1.836264
  N    -0.367005 -0.381900  0.934270
  N    -0.712728  3.473995  0.813020
  N    -0.804158  0.047931  4.752798
  N    -1.069406  3.232113  4.693688
  S    -1.672799 -0.438600  3.393057
  S    -1.915587  3.044281  3.293686
  S     1.195264  0.146151  0.529288
  S     0.896427  3.640809  0.331236
  S     0.752560  0.614744  4.577235
  S     0.596631  3.497706  4.435518
