16  
    
  C    -2.701931 -1.811050  2.019029
  C    -2.916674  2.330358  1.895333
  C    -3.923242 -2.163697  1.319820
  C    -4.055592  1.934627  1.144834
  N    -1.628540 -1.910127  1.231740
  N    -1.875131  2.672594  1.137115
  N    -3.805023 -2.214905  0.001629
  N    -3.870194  1.733980 -0.179878
  N    -4.678718 -1.913575  3.719515
  N    -4.740905  1.835083  3.634727
  S    -5.408772 -2.287946  2.250477
  S    -5.414964  1.474561  2.141444
  S    -2.180285 -2.037798 -0.329328
  S    -2.329317  2.220179 -0.429253
  S    -3.014678 -1.730963  3.708302
  S    -3.140626  2.336213  3.641095
