16  
    
  C     1.377648  0.529736  2.998980
  C     0.933199  4.106324  2.526037
  C     0.186990  0.182007  2.234472
  C    -0.138565  3.423536  1.884330
  N     2.548516  0.390105  2.303862
  N     2.074181  4.232667  1.833765
  N     0.429601 -0.134783  0.962879
  N     0.071553  3.261395  0.601153
  N    -0.574833  0.710567  4.772765
  N    -0.971422  3.683444  4.322651
  S    -1.221828  0.333841  3.244206
  S    -1.622441  3.236130  2.824564
  S     2.065371 -0.035507  0.776647
  S     1.605795  3.819131  0.274944
  S     1.107285  0.951755  4.682705
  S     0.600164  4.136711  4.267004
