16  
    
  C    -1.476380 -1.220820  2.715958
  C    -1.689666  2.675900  2.370833
  C    -2.643847 -1.566767  1.958850
  C    -2.786341  2.088220  1.669900
  N    -0.413715 -0.789287  2.001109
  N    -0.600142  2.717465  1.636021
  N    -2.382681 -1.745050  0.657919
  N    -2.609248  1.839769  0.370359
  N    -3.469843 -1.420984  4.349190
  N    -3.543410  2.413667  4.177579
  S    -4.078729 -1.884122  2.822871
  S    -4.266419  2.154203  2.684919
  S    -0.831186 -1.160325  0.423660
  S    -1.042283  2.292415  0.104375
  S    -1.817092 -1.247886  4.406915
  S    -1.922239  2.835097  4.122614
