16  
    
  C     2.947975  1.508920  3.450673
  C     2.871561  5.146199  3.178668
  C     1.786240  0.887552  2.860430
  C     1.698014  4.499151  2.623184
  N     3.919610  1.862036  2.616692
  N     3.827397  5.391478  2.318783
  N     1.865576  0.721267  1.565021
  N     1.847340  4.185209  1.345571
  N     1.144506  1.467077  5.230688
  N     1.260138  4.868330  5.151261
  S     0.446789  0.702398  3.954452
  S     0.539266  4.166891  3.883980
  S     3.281364  1.316734  1.073858
  S     3.280775  4.852983  0.849177
  S     2.792366  1.738776  5.187160
  S     2.798491  5.476724  4.886221
