16  
    
  C    -4.176717 -2.319541  1.661851
  C    -4.310463  1.769288  1.904833
  C    -5.454233 -2.635862  1.033123
  C    -5.428043  1.102307  1.303462
  N    -3.218577 -2.281363  0.773474
  N    -3.200178  1.703080  1.194908
  N    -5.350668 -3.018185 -0.269365
  N    -5.265446  0.701669  0.048525
  N    -5.983414 -2.118392  3.558587
  N    -6.057805  1.469606  3.727091
  S    -6.793164 -2.720674  2.185397
  S    -6.828992  0.986600  2.261093
  S    -3.762881 -2.797279 -0.724786
  S    -3.615015  0.969596 -0.259782
  S    -4.303293 -1.854596  3.358614
  S    -4.502616  2.156175  3.561670
