16  
    
  C    -3.950218 -1.932600  1.756956
  C    -3.690571  1.781847  1.827655
  C    -5.096080 -2.351669  1.052569
  C    -4.974638  1.402298  1.206835
  N    -2.937865 -1.670740  0.916468
  N    -2.722110  1.898060  0.895640
  N    -4.965011 -2.605535 -0.238047
  N    -4.928452  1.366968 -0.125489
  N    -5.840418 -1.892783  3.529999
  N    -5.511794  1.617523  3.757590
  S    -6.533023 -2.526510  2.125365
  S    -6.297941  1.126317  2.358672
  S    -3.389140 -2.121202 -0.606998
  S    -3.324823  1.679858 -0.611799
  S    -4.259073 -1.509383  3.375307
  S    -3.847691  1.750475  3.578970
