16  
    
  C     2.813141  1.606120  3.467054
  C     2.888653  5.226885  3.302180
  C     1.658132  0.942824  2.895584
  C     1.680768  4.666568  2.702327
  N     3.821918  1.699266  2.641913
  N     3.805660  5.525536  2.412212
  N     1.763616  0.584303  1.593775
  N     1.826669  4.279270  1.440841
  N     1.286323  1.241833  5.478731
  N     1.397406  4.659944  5.212939
  S     0.451060  0.629068  4.187621
  S     0.490693  4.195553  3.844457
  S     3.316053  1.079310  1.150240
  S     3.275075  5.002109  0.955989
  S     2.694151  2.041557  5.164648
  S     2.788221  5.517300  4.977715
