16  
    
  C     2.219526  0.930741  3.364370
  C     2.068330  4.710095  2.965779
  C     0.968998  0.563444  2.750677
  C     0.880747  4.196698  2.324785
  N     3.195937  1.115421  2.480794
  N     3.094464  4.599204  2.107700
  N     1.040053  0.420789  1.408677
  N     0.931419  4.104651  1.001189
  N     0.451121  0.995519  5.251530
  N     0.313755  4.425923  4.785008
  S    -0.364955  0.589039  3.872250
  S    -0.388253  3.815287  3.452894
  S     2.564183  0.762864  1.014303
  S     2.526801  4.398566  0.570510
  S     2.147057  1.085454  5.114065
  S     1.964303  4.784309  4.727587
