16  
    
  C    -2.971988 -1.825580  2.201696
  C    -3.329448  1.725219  2.004426
  C    -4.293078 -1.787418  1.584652
  C    -4.615838  1.307092  1.483186
  N    -1.904299 -1.810977  1.421170
  N    -2.340940  1.893148  1.104799
  N    -4.231669 -1.959617  0.261790
  N    -4.663611  1.279507  0.157042
  N    -4.736217 -1.951402  4.129384
  N    -4.929230  1.414194  4.043424
  S    -5.591193 -1.981195  2.700859
  S    -5.832686  1.090105  2.720935
  S    -2.628952 -1.937962 -0.112773
  S    -3.140757  1.666514 -0.411096
  S    -3.116545 -1.661612  3.934860
  S    -3.342994  1.851606  3.817484
