16  
    
  C    -1.895539 -1.074003  2.381168
  C    -1.884853  2.417114  2.628033
  C    -3.098487 -1.486038  1.775823
  C    -3.114185  1.970211  1.938475
  N    -0.922002 -0.818372  1.480257
  N    -0.876710  2.769644  1.838149
  N    -2.995917 -1.739633  0.455065
  N    -2.877244  1.811661  0.646395
  N    -3.584339 -1.144163  4.344836
  N    -3.733883  2.086673  4.396314
  S    -4.404374 -1.486472  2.937995
  S    -4.491262  1.856634  2.925428
  S    -1.436087 -1.266829 -0.003776
  S    -1.384708  2.372032  0.306662
  S    -1.957302 -0.865823  4.110596
  S    -2.091363  2.402142  4.381029
