16  
    
  C     2.811136  1.605101  3.468946
  C     2.887143  5.224244  3.309699
  C     1.656197  0.941794  2.900497
  C     1.673530  4.672685  2.700889
  N     3.816013  1.694475  2.637330
  N     3.807679  5.524980  2.415169
  N     1.758373  0.585062  1.597525
  N     1.826686  4.278406  1.438696
  N     1.292816  1.239169  5.482564
  N     1.395830  4.665624  5.219551
  S     0.448935  0.628853  4.191477
  S     0.490085  4.197965  3.844317
  S     3.318277  1.078390  1.157655
  S     3.278258  5.010104  0.960886
  S     2.691285  2.041842  5.160324
  S     2.787869  5.515748  4.976850
