16  
    
  C     3.234896  1.496039  3.669534
  C     3.260049  4.921972  3.481043
  C     1.947154  1.316473  3.020247
  C     2.002283  4.804425  2.807450
  N     4.286174  1.477386  2.852232
  N     4.286317  5.013535  2.616136
  N     2.028308  1.233805  1.690452
  N     2.076950  4.464166  1.511560
  N     1.490557  1.252685  5.604736
  N     1.344886  5.160896  5.302780
  S     0.642516  1.269289  4.176662
  S     0.611105  4.740694  3.850955
  S     3.657331  1.345300  1.343536
  S     3.669501  4.779830  1.112541
  S     3.072830  1.758183  5.399036
  S     2.971528  5.218251  5.204867
