16  
    
  C     2.524213  1.121675  3.256619
  C     2.514329  4.684663  3.517940
  C     1.309188  0.815639  2.507513
  C     1.348678  4.268367  2.780853
  N     3.615747  1.293215  2.487183
  N     3.516526  5.018868  2.719075
  N     1.452491  0.879805  1.169090
  N     1.509931  4.296174  1.466429
  N     0.620842  0.769293  5.034790
  N     0.572400  4.408673  5.150358
  S    -0.013023  0.268723  3.526745
  S    -0.059592  3.931677  3.750628
  S     3.036858  1.155135  0.871103
  S     3.065613  4.764998  1.095320
  S     2.334966  0.963535  5.004068
  S     2.107736  4.932891  5.236023
