16  
    
  C    -4.892806 -2.639667  1.956001
  C    -5.385144  1.007483  1.735597
  C    -6.138334 -2.998273  1.334125
  C    -6.620190  0.773551  1.067112
  N    -3.831127 -2.555897  1.141502
  N    -4.323319  1.053471  0.929095
  N    -6.041314 -3.235015  0.017737
  N    -6.493362  0.552604 -0.272891
  N    -6.769976 -2.675737  3.796740
  N    -7.116816  1.005444  3.530836
  S    -7.582585 -2.965774  2.356032
  S    -7.977436  0.638360  2.154442
  S    -4.418757 -3.018403 -0.406105
  S    -4.924831  0.811499 -0.592760
  S    -5.211484 -2.226461  3.648196
  S    -5.529872  1.335625  3.460881
