16  
    
  C     0.129992 -0.108925  2.734352
  C     0.114788  3.586240  2.673290
  C    -1.101315 -0.542102  2.109409
  C    -1.081971  3.008925  2.035819
  N     1.098086  0.209871  1.856897
  N     1.120313  3.821941  1.839189
  N    -1.050225 -0.708260  0.780461
  N    -0.914595  2.752634  0.773642
  N    -1.588121 -0.312571  4.572866
  N    -1.770133  3.338647  4.475207
  S    -2.318818 -0.926907  3.213724
  S    -2.354902  2.511200  3.089830
  S     0.450589 -0.164526  0.372157
  S     0.631342  3.246119  0.337603
  S    -0.103889  0.430845  4.372310
  S    -0.272205  3.996050  4.298339
