16  
    
  C     2.136506  1.248896  3.421463
  C     2.277803  4.494963  3.225383
  C     0.933605  0.794932  2.720058
  C     0.996842  4.339450  2.590108
  N     3.200095  1.516565  2.669188
  N     3.208187  4.978676  2.395907
  N     1.138849  0.646049  1.405454
  N     1.049135  4.465503  1.253627
  N     0.516029  0.773301  5.228214
  N     0.610787  4.251570  5.190233
  S    -0.356461  0.479285  3.912003
  S    -0.253898  3.869301  3.695418
  S     2.711161  1.088892  1.120251
  S     2.587975  4.905533  0.865055
  S     2.141027  1.177927  5.143246
  S     2.230831  4.769289  4.926221
