16  
    
  C    -3.250463 -2.209752  1.915076
  C    -3.796393  1.943793  1.942414
  C    -4.460454 -2.632292  1.278428
  C    -4.681165  1.009164  1.334775
  N    -2.227664 -1.966078  1.089841
  N    -2.719014  2.268983  1.223111
  N    -4.243478 -2.933759  0.033924
  N    -4.373328  0.777419  0.063750
  N    -5.103622 -2.265886  3.702575
  N    -5.616232  1.466275  3.651877
  S    -5.787759 -2.894896  2.312119
  S    -6.028017  0.611726  2.311587
  S    -2.715532 -2.506054 -0.374470
  S    -2.974270  1.604073 -0.260620
  S    -3.608758 -1.591493  3.491686
  S    -4.164778  2.221910  3.641880
