16  
    
  C     0.683702  0.307347  3.073649
  C     0.690045  3.937094  2.874496
  C    -0.605970 -0.009843  2.458135
  C    -0.572034  3.439729  2.252598
  N     1.690845  0.256333  2.213484
  N     1.729436  3.891642  2.077381
  N    -0.540090 -0.102235  1.140427
  N    -0.462253  3.230762  0.954034
  N    -1.101412  0.247707  4.995999
  N    -0.983006  3.633680  4.847264
  S    -1.930794  0.063175  3.590207
  S    -1.814900  3.213211  3.396816
  S     1.024600  0.019295  0.683506
  S     1.083884  3.651911  0.508054
  S     0.514290  0.476650  4.758241
  S     0.589905  4.079730  4.618167
