16  
    
  C    -4.026234 -1.863126  1.664400
  C    -3.877941  1.508835  1.727575
  C    -5.262128 -2.238056  1.052970
  C    -5.190295  1.339663  1.080578
  N    -2.980086 -1.886024  0.864023
  N    -2.916997  1.556522  0.819951
  N    -5.139192 -2.512346 -0.243912
  N    -5.138360  1.077661 -0.237181
  N    -5.786001 -1.893890  3.594135
  N    -5.690984  1.559424  3.645678
  S    -6.557556 -2.268653  2.147371
  S    -6.523139  1.369591  2.177693
  S    -3.509638 -2.305656 -0.642208
  S    -3.495936  1.255698 -0.658054
  S    -4.146673 -1.683710  3.438541
  S    -4.053270  1.678485  3.435122
