16  
    
  C    -0.111115 -0.396863  2.580699
  C    -0.020790  3.248556  2.568811
  C    -1.260853 -1.102839  1.919049
  C    -1.085969  2.631128  1.880123
  N     0.936019 -0.158082  1.808604
  N     0.907788  3.710944  1.769785
  N    -1.114804 -1.109840  0.600490
  N    -0.942478  2.528814  0.551421
  N    -1.895371 -0.980629  4.375312
  N    -1.837734  2.942639  4.321092
  S    -2.640762 -1.377577  2.915096
  S    -2.472015  2.293421  2.882065
  S     0.414916 -0.530100  0.276796
  S     0.548873  3.177357  0.234231
  S    -0.317482 -0.466715  4.273887
  S    -0.321230  3.528416  4.312413
