16  
    
  C     1.432628  0.768151  3.449461
  C     1.292685  4.473679  3.196875
  C     0.189787  0.300078  2.902625
  C    -0.074017  4.251476  2.646508
  N     2.384056  0.849515  2.541501
  N     2.232814  4.713426  2.251126
  N     0.252741 -0.004591  1.585750
  N    -0.016870  3.976342  1.338847
  N    -0.248195  0.941645  5.312032
  N    -0.252776  4.166026  5.182194
  S    -1.149964  0.504012  4.026638
  S    -1.283689  3.879486  3.947338
  S     1.793357  0.365233  1.094610
  S     1.456110  4.404622  0.843487
  S     1.433032  1.247634  5.114975
  S     1.318511  4.655929  4.898764
