16  
    
  C    -0.185420 -0.656839  2.646184
  C    -0.350551  3.352521  2.639052
  C    -1.455882 -1.101852  2.067374
  C    -1.480664  2.666843  2.085393
  N     0.786053 -0.661954  1.784426
  N     0.730834  3.370596  1.818224
  N    -1.391456 -1.424067  0.809889
  N    -1.452880  2.451078  0.770731
  N    -1.818051 -0.654374  4.586971
  N    -2.050590  2.851213  4.609621
  S    -2.651503 -1.221447  3.255127
  S    -2.853379  2.503244  3.198754
  S     0.188883 -1.241840  0.336426
  S     0.056079  2.936467  0.307266
  S    -0.250898 -0.305796  4.345514
  S    -0.474299  3.424561  4.356553
