16  
    
  C    -0.165199 -0.140289  2.695498
  C     0.194082  3.526361  2.325676
  C    -1.357950 -0.583719  2.032378
  C    -1.093575  3.137221  1.696089
  N     0.937851 -0.170094  1.951283
  N     1.176840  3.745656  1.429648
  N    -1.236561 -0.737019  0.732143
  N    -1.096268  3.243054  0.377282
  N    -2.027486 -0.524307  4.482188
  N    -1.515778  3.164978  4.226600
  S    -2.788733 -0.828189  3.031094
  S    -2.364426  2.970258  2.819701
  S     0.367116 -0.553015  0.432284
  S     0.509537  3.482166 -0.084416
  S    -0.385983 -0.305675  4.399194
  S     0.103872  3.442158  4.050763
