16  
    
  C    -5.838851 -2.729807  1.262768
  C    -5.644150  0.810320  1.527937
  C    -7.064005 -3.040073  0.596263
  C    -6.844013  0.369968  0.864158
  N    -4.788398 -2.534271  0.484635
  N    -4.571746  0.868182  0.721770
  N    -6.925884 -3.165080 -0.714526
  N    -6.639771  0.313025 -0.466311
  N    -7.431580 -3.245257  3.173171
  N    -7.408689  0.499832  3.316350
  S    -8.327570 -3.440207  1.812766
  S    -8.211723  0.305012  1.879136
  S    -5.303485 -2.827726 -1.066244
  S    -5.056666  0.572584 -0.816283
  S    -5.980275 -2.490408  2.956118
  S    -5.904651  1.115383  3.309652
