16  
    
  C    -3.423441 -2.092366  1.887665
  C    -3.736544  1.898932  1.932272
  C    -4.464595 -2.909541  1.226171
  C    -4.702124  1.085022  1.305864
  N    -2.310267 -2.024425  1.159659
  N    -2.766039  2.426243  1.165076
  N    -4.271605 -3.196939 -0.056264
  N    -4.358258  0.775679  0.057009
  N    -5.205544 -2.412681  3.697732
  N    -5.600583  1.389312  3.776140
  S    -5.908640 -2.925978  2.274391
  S    -6.000588  0.542499  2.369527
  S    -2.711365 -2.619825 -0.362300
  S    -2.983869  1.670873 -0.346900
  S    -3.651908 -1.729134  3.575634
  S    -4.254474  2.331687  3.548495
