16  
    
  C     1.461428  0.924616  3.415027
  C     1.340572  4.585765  3.266760
  C     0.217426  0.573794  2.830869
  C     0.059976  4.189159  2.785106
  N     2.501318  0.838822  2.569915
  N     2.201993  4.880640  2.297006
  N     0.257499  0.230483  1.554570
  N    -0.061959  3.950301  1.456267
  N    -0.304716  0.908359  5.379512
  N    -0.143909  4.337276  5.395173
  S    -1.043933  0.438283  3.997125
  S    -1.093892  4.086089  4.124353
  S     1.842696  0.339262  1.116563
  S     1.432190  4.293372  0.925247
  S     1.357919  1.264789  5.099915
  S     1.443948  4.653180  5.040354
