16  
    
  C    -0.028917 -0.711404  2.489975
  C    -0.206859  3.026657  2.638243
  C    -1.210902 -1.176320  1.893590
  C    -1.546055  2.697462  2.058217
  N     0.965107 -0.540791  1.649197
  N     0.729810  3.318668  1.727124
  N    -1.145520 -1.362898  0.585113
  N    -1.445553  2.456363  0.759277
  N    -1.658058 -0.697287  4.446688
  N    -1.863095  2.896078  4.576962
  S    -2.515265 -1.182136  3.061520
  S    -2.762168  2.386218  3.282836
  S     0.382676 -0.950502  0.188620
  S     0.063628  2.987295  0.253053
  S    -0.054023 -0.341152  4.240789
  S    -0.327030  3.366759  4.293340
