16  
    
  C    -3.559033 -2.627092  1.885653
  C    -3.502027  1.806492  1.775390
  C    -4.789529 -2.909200  1.139213
  C    -4.546990  0.902233  1.247666
  N    -2.538257 -2.406194  1.081828
  N    -2.503334  2.130768  0.969915
  N    -4.719697 -3.016537 -0.174351
  N    -4.366124  0.665490 -0.061449
  N    -5.433319 -2.733284  3.611369
  N    -5.293700  1.525039  3.611705
  S    -6.165819 -3.216313  2.199275
  S    -5.922703  0.745835  2.310758
  S    -3.126140 -2.625579 -0.473990
  S    -2.952892  1.416796 -0.508056
  S    -3.769399 -2.364689  3.572454
  S    -3.797650  2.126658  3.462269
