16  
    
  C     2.807208  1.431642  3.638661
  C     2.889569  5.359035  3.536179
  C     1.596822  0.845504  3.075981
  C     1.769904  4.778444  2.854116
  N     3.797149  1.684167  2.765401
  N     3.976245  5.458643  2.766800
  N     1.654966  0.567073  1.782107
  N     1.880512  4.756010  1.526425
  N     1.017585  1.508299  5.507004
  N     1.065512  5.054231  5.247156
  S     0.325987  0.703441  4.235625
  S     0.428050  4.490077  3.818772
  S     3.089051  1.089346  1.234362
  S     3.381534  5.281899  1.209852
  S     2.677627  1.679191  5.384593
  S     2.717520  5.339229  5.260032
