16  
    
  C    -4.842506 -2.381404  1.870576
  C    -5.080321  1.156373  1.803109
  C    -5.978895 -3.018406  1.216753
  C    -6.254349  0.645137  1.161362
  N    -3.844102 -2.209154  1.008804
  N    -4.064926  1.399703  0.939101
  N    -5.861822 -3.159771 -0.110784
  N    -6.044459  0.276545 -0.109093
  N    -6.440852 -3.092430  3.682426
  N    -6.906821  0.925948  3.608318
  S    -7.301333 -3.222582  2.293751
  S    -7.575761  0.254360  2.287058
  S    -4.402303 -2.571914 -0.514915
  S    -4.444710  0.670047 -0.493785
  S    -5.024046 -2.164034  3.598819
  S    -5.348764  1.415547  3.464203
