16  
    
  C     2.177522  1.122844  3.444373
  C     2.015626  4.944280  3.127394
  C     0.919562  0.679070  2.890336
  C     0.825538  4.589378  2.388835
  N     3.161024  1.220812  2.562130
  N     3.106436  5.210949  2.429398
  N     0.987231  0.395723  1.605813
  N     1.058347  4.414636  1.084345
  N     0.587426  0.985484  5.455495
  N     0.185213  4.398633  4.946762
  S    -0.316363  0.604300  4.121099
  S    -0.466960  4.207416  3.459022
  S     2.609979  0.689508  1.122703
  S     2.654782  4.971682  0.845554
  S     2.175060  1.157491  5.187526
  S     1.775713  4.999121  4.882040
