16  
    
  C    -3.638733 -2.511212  1.830136
  C    -3.469497  1.719305  1.748216
  C    -4.845493 -2.942747  1.138177
  C    -4.534468  0.981592  1.203395
  N    -2.574889 -2.399730  1.041849
  N    -2.506124  2.059385  0.879718
  N    -4.727492 -2.963042 -0.202156
  N    -4.334200  0.693745 -0.061369
  N    -5.415184 -2.752358  3.622755
  N    -5.299594  1.520502  3.629156
  S    -6.175124 -3.146446  2.159863
  S    -5.925517  0.759067  2.305649
  S    -3.163346 -2.601545 -0.497504
  S    -2.897127  1.400556 -0.564812
  S    -3.774029 -2.430608  3.577737
  S    -3.763353  2.124846  3.488926
