16  
    
  C    -3.996132 -1.709331  1.697596
  C    -3.779207  1.530327  1.809792
  C    -5.129403 -2.312493  1.013563
  C    -5.084976  1.392338  1.141716
  N    -2.935325 -1.718584  0.928937
  N    -2.824603  1.734406  0.927997
  N    -4.965473 -2.603368 -0.280187
  N    -5.018373  1.240552 -0.168275
  N    -5.786277 -2.048726  3.505521
  N    -5.510473  1.499978  3.659349
  S    -6.590400 -2.352125  2.049077
  S    -6.352494  1.259267  2.238964
  S    -3.386893 -2.239076 -0.579432
  S    -3.455355  1.517810 -0.537208
  S    -4.212940 -1.486279  3.400687
  S    -3.844889  1.749000  3.501816
