16  
    
  C    -1.023402 -0.710571  2.293196
  C    -0.749405  3.081770  2.605747
  C    -2.249637 -1.379815  1.734379
  C    -1.941490  2.579515  2.002004
  N     0.002252 -0.632461  1.420549
  N     0.306493  3.069370  1.806522
  N    -2.173616 -1.636560  0.424530
  N    -1.797066  2.277925  0.735195
  N    -2.860586 -0.729579  4.165387
  N    -2.531978  2.992827  4.433379
  S    -3.606084 -1.400459  2.804789
  S    -3.320359  2.591575  3.056107
  S    -0.565754 -1.239422 -0.022935
  S    -0.262052  2.684315  0.312724
  S    -1.240553 -0.306273  3.944846
  S    -0.927151  3.278559  4.373612
