16  
    
  C    -4.722644 -2.795671  1.493717
  C    -4.665464  0.875231  1.406493
  C    -6.029054 -3.036897  0.941764
  C    -5.933221  0.630129  0.756353
  N    -3.720499 -2.754970  0.642699
  N    -3.610420  1.019906  0.641521
  N    -5.962643 -3.137358 -0.377872
  N    -5.762619  0.752918 -0.560974
  N    -6.396376 -2.603701  3.516272
  N    -6.507221  0.806930  3.292345
  S    -7.303293 -2.980210  2.125020
  S    -7.355197  0.694046  1.777682
  S    -4.407423 -2.882600 -0.879850
  S    -4.165245  0.974244 -0.911907
  S    -4.730120 -2.470205  3.243776
  S    -4.838334  1.044668  3.098713
