16  
    
  C     2.605619  1.099774  3.199117
  C     2.535730  5.033787  3.570754
  C     1.400902  0.727330  2.498884
  C     1.452867  4.232970  3.108428
  N     3.710354  1.167905  2.464607
  N     3.492309  5.233719  2.657172
  N     1.573849  0.525685  1.194837
  N     1.523731  3.998048  1.802947
  N     0.747599  1.090916  4.914548
  N     0.879332  4.754479  5.547534
  S     0.066202  0.355061  3.574764
  S     0.086926  4.243883  4.144629
  S     3.156161  0.778521  0.879272
  S     2.929631  4.665393  1.227259
  S     2.343918  1.327066  4.935448
  S     2.504899  5.318725  5.282983
