16  
    
  C     2.023389  1.176505  3.031541
  C     2.189629  4.368136  2.987098
  C     0.803006  0.705128  2.449362
  C     1.039026  3.858668  2.329580
  N     3.064538  1.255309  2.211236
  N     3.280639  4.547910  2.233597
  N     0.936797  0.443882  1.155800
  N     1.277688  3.667646  1.044525
  N     0.248794  0.966829  4.925342
  N     0.258094  4.290399  4.810433
  S    -0.538810  0.495264  3.632311
  S    -0.376856  3.895997  3.269139
  S     2.483935  0.764442  0.744214
  S     2.889672  3.986436  0.713990
  S     1.839583  1.382736  4.776672
  S     1.936059  4.559943  4.744452
