16  
    
  C    -0.204428 -0.277143  2.457707
  C    -0.364785  3.283978  2.517444
  C    -1.253899 -0.925581  1.785448
  C    -1.711395  3.082153  1.954070
  N     0.890860 -0.158641  1.735220
  N     0.609713  3.555150  1.644077
  N    -1.002953 -1.071458  0.466016
  N    -1.647544  2.878925  0.645996
  N    -1.908209 -0.628366  4.249852
  N    -2.011425  3.163073  4.592406
  S    -2.583496 -1.203123  2.862512
  S    -2.916217  2.986024  3.191530
  S     0.510988 -0.558908  0.177252
  S    -0.069398  3.154933  0.162318
  S    -0.370146  0.028953  4.171239
  S    -0.366619  3.442788  4.241869
