16  
    
  C    -2.943641 -1.659099  1.975452
  C    -2.569696  2.118821  2.005701
  C    -4.131670 -2.115647  1.265165
  C    -3.865019  1.795886  1.358283
  N    -1.911770 -1.294000  1.235954
  N    -1.528760  2.172801  1.191628
  N    -3.869688 -2.307358 -0.012512
  N    -3.713998  1.626469  0.027123
  N    -4.655226 -2.181503  3.784456
  N    -4.289204  2.220670  3.902024
  S    -5.464434 -2.647442  2.365157
  S    -5.152696  2.068151  2.515991
  S    -2.375757 -1.672446 -0.315023
  S    -2.126341  1.791304 -0.346021
  S    -3.117237 -1.617094  3.655706
  S    -2.613233  2.352598  3.752050
