16  
    
  C     0.720950  0.359409  3.085661
  C     0.568409  3.999162  2.968381
  C    -0.582943  0.201551  2.419582
  C    -0.555964  3.217088  2.414053
  N     1.759776  0.450448  2.236779
  N     1.624714  3.994686  2.161988
  N    -0.446129 -0.042149  1.105111
  N    -0.392552  2.816275  1.147894
  N    -1.088650  0.264102  4.987845
  N    -1.155227  4.008963  4.818639
  S    -1.919168  0.296325  3.571280
  S    -1.856335  3.273417  3.510471
  S     1.149729  0.140512  0.696528
  S     1.111657  3.344053  0.678476
  S     0.558667  0.491177  4.837527
  S     0.436360  4.362350  4.662757
