16  
    
  C     1.046187  0.201144  3.043387
  C     0.967192  4.203082  2.564687
  C    -0.258219  0.027928  2.349482
  C    -0.099559  3.366122  2.217275
  N     2.054841  0.263081  2.191903
  N     2.058432  4.121328  1.748568
  N    -0.158693 -0.133384  1.039638
  N     0.073395  2.880351  0.982399
  N    -0.763879 -0.160142  4.850930
  N    -0.751766  4.332255  4.489007
  S    -1.606266 -0.116956  3.421315
  S    -1.491303  3.400329  3.328557
  S     1.434469  0.045693  0.697877
  S     1.515969  3.399223  0.400489
  S     0.913533  0.238746  4.796259
  S     0.826006  4.761366  4.201587
