16  
    
  C     2.754842  1.381486  3.669771
  C     2.929389  5.285534  3.630606
  C     1.539245  1.019573  3.022150
  C     1.700077  5.039498  2.887368
  N     3.758079  1.517808  2.811749
  N     3.992198  5.342636  2.857413
  N     1.602953  0.844745  1.700005
  N     1.857671  4.793701  1.591219
  N     1.002467  0.901699  5.570720
  N     1.155940  4.714959  5.348254
  S     0.228007  0.743664  4.105918
  S     0.347550  4.862920  3.931311
  S     3.223781  1.214078  1.302851
  S     3.484480  5.147563  1.313912
  S     2.559706  1.465715  5.456013
  S     2.692466  5.305183  5.362956
