16  
    
  C    -3.016479 -1.354425  2.055918
  C    -3.222293  1.842092  1.898915
  C    -4.180466 -1.940055  1.445080
  C    -4.393310  1.591271  1.147182
  N    -1.963778 -1.193297  1.268400
  N    -2.076640  1.961567  1.191735
  N    -4.070721 -1.949289  0.106384
  N    -4.122226  1.339650 -0.122769
  N    -4.625193 -1.688343  3.935055
  N    -5.171669  1.752919  3.660576
  S    -5.470819 -1.981822  2.558056
  S    -5.724672  1.180124  2.203504
  S    -2.472806 -1.583194 -0.262194
  S    -2.444032  1.581391 -0.368807
  S    -3.046066 -1.104221  3.766326
  S    -3.542307  1.999425  3.613609
