16  
    
  C    -4.254937 -2.503015  1.554550
  C    -4.274434  1.585986  2.025513
  C    -5.432431 -3.034228  0.920617
  C    -5.382227  0.923202  1.357072
  N    -3.224413 -2.331507  0.692606
  N    -3.204230  1.751359  1.231758
  N    -5.314762 -3.261989 -0.379930
  N    -5.149195  0.670941  0.061398
  N    -5.969725 -2.571130  3.466523
  N    -6.214126  1.558468  3.723076
  S    -6.812203 -2.918396  2.066162
  S    -6.867733  0.955738  2.356348
  S    -3.762339 -2.825824 -0.801270
  S    -3.673781  1.179732 -0.288000
  S    -4.345236 -2.078719  3.287302
  S    -4.596065  1.959345  3.669026
