16  
    
  C    -1.066101 -0.425435  2.434106
  C    -1.094374  3.149374  2.444418
  C    -2.119090 -1.000562  1.715769
  C    -2.358472  2.758278  1.779405
  N    -0.054054 -0.146560  1.639610
  N    -0.056780  3.054145  1.594143
  N    -1.991639 -1.171771  0.405575
  N    -2.307341  2.471633  0.471960
  N    -2.784345 -1.041391  4.222280
  N    -2.946121  3.162896  4.196078
  S    -3.453859 -1.453673  2.749902
  S    -3.769907  3.047989  2.784648
  S    -0.461767 -0.614972  0.093902
  S    -0.692642  2.671262  0.077983
  S    -1.189227 -0.529812  4.184554
  S    -1.306284  3.272340  4.115954
