16  
    
  C     1.555865  0.716135  2.868165
  C     0.830307  4.052182  2.488700
  C     0.280940  0.353510  2.246526
  C    -0.314148  3.488745  1.872724
  N     2.542756  0.945133  1.983410
  N     1.803711  4.334928  1.600654
  N     0.361636  0.287475  0.945361
  N    -0.083466  3.162709  0.599029
  N    -0.128161  0.267923  4.745118
  N    -0.890545  3.769703  4.324766
  S    -1.003113 -0.026725  3.340451
  S    -1.580108  3.127056  2.992737
  S     1.892408  0.676512  0.502342
  S     1.448293  3.676415  0.189359
  S     1.415909  0.823036  4.618652
  S     0.697000  4.258307  4.238143
