16  
    
  C     1.598207  0.728178  2.835242
  C     0.929226  3.850931  2.507394
  C     0.386129  0.156052  2.238156
  C    -0.284059  3.474808  1.912231
  N     2.618757  0.797907  1.996270
  N     1.941804  4.012520  1.670138
  N     0.485103 -0.122709  0.918312
  N    -0.230033  3.263598  0.575424
  N    -0.159063  0.673352  4.698278
  N    -0.857853  3.549872  4.446094
  S    -0.972597  0.150652  3.350286
  S    -1.637078  3.188350  3.018093
  S     2.024353  0.301956  0.532880
  S     1.330077  3.701099  0.155730
  S     1.423300  1.125889  4.497702
  S     0.723733  4.144160  4.217194
