16  
    
  C     2.075600  0.582845  3.208374
  C     2.004508  4.397236  3.004844
  C     0.770594  0.256257  2.673163
  C     0.748508  3.923408  2.449966
  N     3.013566  0.711117  2.306440
  N     3.078862  4.316910  2.171829
  N     0.765386  0.009457  1.382449
  N     0.812952  3.803039  1.096388
  N     0.396940  0.751191  5.079319
  N     0.264447  4.269904  4.993312
  S    -0.492847  0.640914  3.780134
  S    -0.522255  3.954708  3.542173
  S     2.314478  0.364868  0.865665
  S     2.394080  3.936876  0.740005
  S     2.047581  0.883090  4.910310
  S     1.876405  4.792577  4.742481
