16  
    
  C    -5.781511 -2.687276  1.339934
  C    -5.559394  0.772669  1.553477
  C    -7.034128 -3.010387  0.675629
  C    -6.762028  0.423192  0.811763
  N    -4.760031 -2.507014  0.496460
  N    -4.496149  0.878421  0.749459
  N    -6.837778 -3.197986 -0.628456
  N    -6.702520  0.256481 -0.504195
  N    -7.541952 -3.112070  3.163995
  N    -7.447014  0.569154  3.330539
  S    -8.384498 -3.405559  1.741458
  S    -8.200941  0.293515  1.876203
  S    -5.289181 -2.807632 -1.018108
  S    -5.070736  0.583603 -0.823942
  S    -5.949172 -2.507528  3.083855
  S    -5.819529  1.114499  3.267577
