16  
    
  C     1.156868  0.226984  3.074454
  C     0.480856  3.739006  3.062439
  C    -0.085462 -0.099424  2.343876
  C    -0.524480  3.182715  2.212874
  N     2.215106  0.382313  2.296603
  N     1.574778  4.160751  2.461621
  N     0.101845 -0.259484  1.035277
  N    -0.154450  2.983218  0.930610
  N    -0.744724 -0.042519  4.764170
  N    -1.397007  3.091137  4.602295
  S    -1.474569 -0.301768  3.332603
  S    -1.866341  2.522083  3.106479
  S     1.700611  0.046849  0.721108
  S     1.319376  3.848097  0.820431
  S     0.878207  0.406818  4.751597
  S     0.098963  3.813719  4.736797
