16  
    
  C     3.621037  1.668787  3.618320
  C     3.187261  5.169850  3.433005
  C     2.344141  1.280474  3.062888
  C     2.043952  4.605216  2.833599
  N     4.494198  1.893699  2.643753
  N     4.103353  5.508621  2.548092
  N     2.278748  1.228717  1.740047
  N     2.046170  4.518223  1.507407
  N     2.003869  1.331401  5.660301
  N     1.283689  5.139019  5.256382
  S     1.111612  1.048294  4.265165
  S     0.666545  4.348248  3.928358
  S     3.797761  1.685366  1.224351
  S     3.596977  5.082565  1.033952
  S     3.559257  1.912820  5.347004
  S     2.927629  5.443100  5.224316
