16  
    
  C    -1.567047 -1.242979  2.115763
  C    -1.743121  2.297834  1.889626
  C    -2.887250 -1.418827  1.474979
  C    -2.998606  1.970304  1.290517
  N    -0.571605 -1.315868  1.285885
  N    -0.689350  2.477424  1.105226
  N    -2.788859 -1.521311  0.175509
  N    -2.911802  2.000156 -0.038629
  N    -3.248623 -0.976211  4.014526
  N    -3.487161  2.342835  3.760827
  S    -4.167996 -1.188258  2.635185
  S    -4.294184  1.846765  2.434715
  S    -1.173417 -1.383264 -0.216734
  S    -1.324020  2.215817 -0.441513
  S    -1.577418 -0.823183  3.801043
  S    -1.834477  2.398245  3.672538
