16  
    
  C     3.545782  1.716407  3.611833
  C     3.107045  5.271321  3.419709
  C     2.242868  1.254374  3.073335
  C     1.949073  4.692845  2.792867
  N     4.498988  1.943327  2.731180
  N     4.138772  5.444404  2.622967
  N     2.210368  1.156612  1.759673
  N     2.068281  4.429827  1.512458
  N     2.011253  1.440393  5.617891
  N     1.289264  5.005786  5.225805
  S     1.034690  0.934449  4.380963
  S     0.624041  4.300344  3.833614
  S     3.728276  1.570515  1.196154
  S     3.512896  5.016832  1.101187
  S     3.615644  1.754412  5.301450
  S     2.874376  5.493595  5.118910
