16  
    
  C    -1.329980 -0.700850  1.834654
  C    -1.246553  3.302876  2.132330
  C    -2.673348 -1.059602  1.477673
  C    -2.358617  2.653363  1.528576
  N    -0.476014 -0.574704  0.832001
  N    -0.355076  3.637465  1.210878
  N    -2.807726 -1.416594  0.230767
  N    -2.426972  2.692034  0.172565
  N    -2.740988 -0.666749  3.942592
  N    -2.853506  2.895276  4.097672
  S    -3.679299 -1.485952  2.871068
  S    -3.585728  2.232318  2.727823
  S    -1.312757 -1.078811 -0.521463
  S    -0.945946  3.263380 -0.305020
  S    -1.203489 -0.223222  3.454010
  S    -1.369961  3.658311  3.814843
