16  
    
  C    -4.184779 -1.992492  1.869523
  C    -4.178110  1.388581  1.767959
  C    -5.536037 -2.247975  1.391927
  C    -5.380794  1.230655  1.066394
  N    -3.236369 -2.049406  0.935841
  N    -3.076791  1.316797  1.003724
  N    -5.600598 -2.484044  0.100060
  N    -5.246974  1.135921 -0.243988
  N    -5.678058 -2.257348  3.931485
  N    -6.067139  1.555012  3.539435
  S    -6.662741 -2.280377  2.632177
  S    -6.834590  1.259193  2.109409
  S    -4.031495 -2.425298 -0.431791
  S    -3.584489  1.152602 -0.530548
  S    -4.062163 -2.048958  3.633545
  S    -4.457788  1.530042  3.506883
