16  
    
  C     1.772070  0.606047  3.022560
  C     1.942218  4.177371  3.374819
  C     0.487661  0.216091  2.432755
  C     0.632995  4.206997  2.680761
  N     2.747143  0.815510  2.139649
  N     2.965755  4.369022  2.506970
  N     0.588258  0.079367  1.133951
  N     0.739694  4.153348  1.304325
  N     0.147436  0.361013  5.040980
  N     0.215181  3.948277  5.211490
  S    -0.804385 -0.003782  3.578890
  S    -0.657320  3.735602  3.818505
  S     2.128217  0.471030  0.658507
  S     2.318245  4.384706  1.007446
  S     1.794516  0.455460  4.749623
  S     1.795627  4.271893  5.120223
