16  
    
  C    -4.729559 -2.517977  1.577802
  C    -4.701961  1.121107  1.447033
  C    -6.012505 -2.958874  1.034596
  C    -5.975997  0.783537  0.801173
  N    -3.772446 -2.413602  0.683985
  N    -3.663208  1.320640  0.680541
  N    -5.962685 -3.240447 -0.270362
  N    -5.846765  0.608116 -0.509575
  N    -6.292011 -2.711790  3.609269
  N    -6.516324  0.833554  3.250363
  S    -7.235664 -2.997949  2.271549
  S    -7.334468  0.336231  1.895027
  S    -4.414214 -2.847552 -0.774871
  S    -4.174757  0.859285 -0.886645
  S    -4.732201 -2.296198  3.352276
  S    -4.969249  1.186524  3.166544
