16  
    
  C    -3.934258 -2.042018  1.711585
  C    -3.590010  2.021585  1.768611
  C    -5.144968 -2.477437  1.067591
  C    -4.797606  1.547748  1.096664
  N    -2.942126 -1.753327  0.898732
  N    -2.660299  2.316772  0.877601
  N    -5.080775 -2.595708 -0.275314
  N    -4.731408  1.374171 -0.239570
  N    -5.581388 -2.633143  3.571655
  N    -5.135770  1.245442  3.673256
  S    -6.428782 -2.729827  2.171922
  S    -6.028763  1.081057  2.238161
  S    -3.572618 -2.090407 -0.614660
  S    -3.222860  1.866284 -0.623832
  S    -3.979721 -2.097918  3.432970
  S    -3.683106  2.159746  3.455547
