16  
    
  C    -5.679881 -3.046424  1.469434
  C    -6.056664  0.946798  1.486641
  C    -6.862600 -3.505923  0.804657
  C    -7.138940  0.193848  0.924976
  N    -4.683368 -2.752010  0.615622
  N    -5.159914  1.299308  0.597800
  N    -6.848352 -3.729264 -0.496378
  N    -7.177938  0.093135 -0.397984
  N    -7.488545 -3.530849  3.282611
  N    -7.471658  0.174864  3.462254
  S    -8.164333 -3.858976  1.828545
  S    -8.298257 -0.273980  2.159809
  S    -5.310235 -3.243900 -0.905929
  S    -5.715112  0.795269 -0.918404
  S    -6.014966 -2.784842  3.189707
  S    -6.080450  1.022159  3.195091
