16  
    
  C    -2.853995 -1.746857  2.007677
  C    -2.642830  2.184246  2.033797
  C    -4.067131 -2.128283  1.246363
  C    -3.871592  1.863612  1.324223
  N    -1.806616 -1.447591  1.240816
  N    -1.604364  2.204712  1.215362
  N    -3.816944 -2.377499 -0.026150
  N    -3.791901  1.861237 -0.010422
  N    -4.796438 -2.243778  3.674600
  N    -4.499991  1.943431  3.818857
  S    -5.457613 -2.544547  2.217190
  S    -5.259054  1.853197  2.335791
  S    -2.302693 -1.869559 -0.321499
  S    -2.204201  2.105716 -0.358589
  S    -3.194741 -1.688131  3.728227
  S    -2.907616  2.454126  3.740478
