16  
    
  C    -2.246298 -1.045445  2.016933
  C    -2.626381  2.446305  2.303887
  C    -3.252491 -1.915879  1.472410
  C    -3.837838  1.864008  1.696826
  N    -1.279033 -0.669291  1.210518
  N    -1.746541  2.914136  1.424843
  N    -3.175634 -2.014359  0.175660
  N    -3.706237  1.663049  0.379944
  N    -3.933542 -1.627033  3.954328
  N    -4.387409  2.240175  4.131644
  S    -4.488754 -2.346974  2.614639
  S    -5.117049  1.650984  2.786035
  S    -1.816483 -1.147339 -0.322187
  S    -2.291894  2.374637 -0.100925
  S    -2.401022 -1.014032  3.837125
  S    -2.851858  2.889884  3.981979
