16  
    
  C    -4.116344 -2.064848  1.784184
  C    -4.144972  1.266139  1.744637
  C    -5.455033 -2.312727  1.279729
  C    -5.416821  1.263550  1.012198
  N    -3.160098 -2.237287  0.837044
  N    -3.070379  1.243616  0.937591
  N    -5.517596 -2.374136 -0.054654
  N    -5.244498  1.127064 -0.300912
  N    -5.670810 -2.027458  3.838317
  N    -5.953987  1.523391  3.473383
  S    -6.706156 -2.287629  2.545903
  S    -6.755558  1.297104  2.019951
  S    -3.914546 -2.394567 -0.616423
  S    -3.588372  1.151214 -0.577701
  S    -4.023218 -1.929920  3.529917
  S    -4.328123  1.662944  3.447184
