16  
    
  C    -1.411295 -1.152167  2.201837
  C    -1.729096  2.362278  1.973583
  C    -2.685075 -1.363986  1.578832
  C    -3.030685  2.080977  1.319713
  N    -0.434521 -1.270600  1.301310
  N    -0.771078  2.342971  1.093693
  N    -2.679669 -1.456007  0.251123
  N    -3.018521  1.982433 -0.005600
  N    -3.207636 -1.078958  4.086825
  N    -3.391905  2.204132  3.888636
  S    -4.071546 -1.181960  2.660303
  S    -4.248461  1.841595  2.538969
  S    -1.098725 -1.495632 -0.188881
  S    -1.438710  2.245898 -0.418062
  S    -1.560597 -0.807985  3.923593
  S    -1.790624  2.568073  3.661223
