16  
    
  C     3.249257  1.549991  3.571807
  C     3.074274  5.064066  3.382309
  C     1.994068  1.118940  3.050628
  C     1.969208  4.434373  2.685411
  N     4.300337  1.591549  2.753620
  N     4.110375  5.472852  2.662604
  N     2.129665  0.854957  1.763055
  N     2.216358  4.324142  1.404180
  N     1.575516  1.473642  5.562378
  N     1.164657  5.084075  5.113440
  S     0.707628  0.959268  4.230447
  S     0.616127  4.137362  3.852725
  S     3.693621  1.103280  1.237740
  S     3.712147  5.003288  1.055907
  S     3.137582  2.019064  5.249028
  S     2.779814  5.359846  5.101328
