16  
    
  C    -2.315839 -1.134084  2.133640
  C    -2.740359  2.654633  2.291695
  C    -3.401495 -1.840138  1.552787
  C    -3.835972  1.943951  1.720073
  N    -1.376354 -0.707936  1.283741
  N    -1.729461  2.949952  1.475378
  N    -3.327764 -1.887242  0.226875
  N    -3.723465  1.746393  0.434132
  N    -4.088991 -1.569842  3.960308
  N    -4.401526  2.152368  4.232681
  S    -4.679804 -2.298331  2.549434
  S    -5.066292  1.434907  2.890125
  S    -1.870095 -1.206039 -0.211412
  S    -2.271787  2.419357 -0.029473
  S    -2.528934 -0.952683  3.897759
  S    -2.891285  2.825726  4.035350
