16  
    
  C    -1.975962 -1.021340  2.057519
  C    -2.495388  2.513226  1.980429
  C    -3.143196 -1.721235  1.452140
  C    -3.771436  2.203361  1.450053
  N    -0.970401 -0.889028  1.237272
  N    -1.471098  2.599367  1.124008
  N    -3.062536 -1.686050  0.146646
  N    -3.708411  1.844254  0.165739
  N    -3.620158 -1.509452  3.953681
  N    -4.181491  2.470593  3.942206
  S    -4.399235 -2.046456  2.567135
  S    -5.031537  1.952639  2.622798
  S    -1.490400 -1.321759 -0.254309
  S    -2.158192  2.168446 -0.335691
  S    -2.123514 -0.845749  3.797270
  S    -2.633651  2.922477  3.704890
