16  
    
  C     2.282818  0.772096  3.509523
  C     1.858980  5.150607  3.106440
  C     0.994784  0.572364  2.905718
  C     0.815239  4.489726  2.374002
  N     3.327071  0.818844  2.682669
  N     3.024779  5.225188  2.460093
  N     1.058371  0.510710  1.564265
  N     1.124788  4.406421  1.067178
  N     0.608193  1.018813  5.567598
  N     0.024751  4.791797  4.763550
  S    -0.259307  0.593030  4.139960
  S    -0.528426  4.131007  3.417212
  S     2.633798  0.658999  1.165083
  S     2.696565  4.883350  0.880113
  S     2.262380  1.149642  5.221447
  S     1.558320  5.281665  4.844439
