16  
    
  C    -2.671725 -1.923806  2.004729
  C    -2.961017  2.253902  1.847278
  C    -3.913468 -1.974884  1.268591
  C    -3.987037  1.576183  1.150853
  N    -1.616332 -1.848132  1.217655
  N    -1.956365  2.602851  1.032434
  N    -3.798170 -2.223541 -0.026475
  N    -3.902341  1.581540 -0.192009
  N    -4.520735 -1.845555  3.779510
  N    -4.815439  1.725625  3.612029
  S    -5.275701 -2.128401  2.272638
  S    -5.480343  1.395886  2.111627
  S    -2.159609 -2.162658 -0.348893
  S    -2.386630  2.312034 -0.538253
  S    -2.896270 -1.746551  3.730415
  S    -3.259171  2.320128  3.560419
