16  
    
  C     1.045611  0.305857  3.013646
  C     0.530195  3.659208  2.975431
  C    -0.092427 -0.102770  2.255143
  C    -0.484345  3.083481  2.173232
  N     2.151257  0.487918  2.267825
  N     1.484392  4.263469  2.240389
  N     0.037969 -0.125058  0.923783
  N    -0.189026  2.986741  0.889911
  N    -0.817628 -0.158479  4.789018
  N    -1.457853  3.178105  4.545582
  S    -1.505336 -0.310137  3.276889
  S    -1.904386  2.535335  3.042348
  S     1.688057  0.240420  0.691900
  S     1.308028  3.687002  0.699912
  S     0.841752  0.246405  4.764864
  S     0.034660  3.767089  4.645259
