16  
    
  C     1.417656  0.684034  3.065982
  C     0.947452  4.221585  2.751589
  C     0.195019  0.260617  2.468618
  C    -0.056398  3.569287  1.990127
  N     2.341611  0.905686  2.161266
  N     1.991770  4.469244  1.981554
  N     0.208260  0.124892  1.147245
  N     0.106928  3.670144  0.667372
  N    -0.406568  0.673310  4.949591
  N    -0.941805  3.855049  4.387056
  S    -1.136671  0.125382  3.523945
  S    -1.460632  3.241484  2.977485
  S     1.736203  0.550862  0.702624
  S     1.679848  4.134445  0.441967
  S     1.282762  0.876757  4.764482
  S     0.656806  4.384352  4.455976
