16  
    
  C     2.448770  1.160481  3.330880
  C     2.856710  5.226624  3.864033
  C     1.308655  0.632999  2.598618
  C     1.634157  4.702344  3.275116
  N     3.592828  1.295633  2.667387
  N     3.823384  5.425836  2.953327
  N     1.642262  0.373765  1.341869
  N     1.896204  4.115689  2.080639
  N     0.555762  0.921511  5.084184
  N     1.228792  5.147785  5.762028
  S    -0.142070  0.469488  3.567370
  S     0.324718  4.740624  4.487084
  S     3.226081  0.786995  1.139513
  S     3.359232  4.761506  1.555916
  S     2.161629  1.388242  5.000132
  S     2.780093  5.727549  5.524769
