16  
    
  C    -3.061022 -1.315637  2.233621
  C    -3.141229  1.697406  2.035543
  C    -4.220361 -1.789425  1.558064
  C    -4.366209  1.420780  1.375938
  N    -2.046049 -1.241950  1.371460
  N    -2.175549  2.048481  1.181222
  N    -4.163452 -1.901956  0.246686
  N    -4.295267  1.325360  0.043769
  N    -4.794803 -1.591585  4.054369
  N    -5.065563  1.582749  3.804913
  S    -5.576802 -1.924134  2.601115
  S    -5.751894  1.250301  2.355934
  S    -2.582390 -1.571880 -0.155304
  S    -2.751297  1.755313 -0.319538
  S    -3.232117 -1.140307  3.950296
  S    -3.457384  1.916275  3.705927
