16  
    
  C    -5.391489 -2.790232  1.542110
  C    -5.535137  1.074825  1.341775
  C    -6.679265 -3.003806  0.855091
  C    -6.657526  0.457453  0.635657
  N    -4.366750 -2.705579  0.710103
  N    -4.464623  1.326826  0.575333
  N    -6.510865 -3.240525 -0.458057
  N    -6.579641  0.371822 -0.727591
  N    -7.161350 -3.188439  3.390940
  N    -7.243617  0.530524  3.167453
  S    -7.982394 -3.535810  1.945147
  S    -7.972673  0.077040  1.774956
  S    -4.894400 -3.013193 -0.832354
  S    -4.978271  0.910428 -1.009974
  S    -5.602981 -2.572528  3.303402
  S    -5.728850  1.186199  3.085289
