16  
    
  C    -0.337145 -0.465012  2.365007
  C    -0.419007  3.635260  2.890334
  C    -1.586066 -0.845647  1.796050
  C    -1.566717  2.992244  2.204853
  N     0.618852 -0.108780  1.521245
  N     0.614814  3.702984  2.068336
  N    -1.513027 -1.190815  0.518106
  N    -1.370207  2.676894  0.932801
  N    -2.120610 -0.715527  4.312968
  N    -2.120994  3.200219  4.678035
  S    -2.991149 -1.102359  2.938216
  S    -2.920494  2.933192  3.306725
  S     0.067579 -0.704618  0.037071
  S     0.141590  3.232239  0.560959
  S    -0.468967 -0.349954  4.094004
  S    -0.574837  3.743526  4.607220
