16  
    
  C     2.584571  0.952517  3.100175
  C     2.456256  4.975558  3.502409
  C     1.394764  0.551504  2.428684
  C     1.358925  4.343561  2.861979
  N     3.593425  1.182919  2.297250
  N     3.487048  5.211977  2.690181
  N     1.549241  0.372826  1.092905
  N     1.509578  4.208136  1.526192
  N     0.894762  0.667200  4.951857
  N     0.757347  4.482657  5.499508
  S     0.083950  0.458649  3.604263
  S     0.008687  4.147077  3.987791
  S     3.128631  0.894550  0.783768
  S     3.079787  4.647810  1.211920
  S     2.429394  1.233517  4.813262
  S     2.286542  5.148703  5.218013
