16  
    
  C    -2.550256 -1.969763  1.960329
  C    -3.090390  2.172714  1.755248
  C    -3.839472 -1.991086  1.319279
  C    -4.178460  1.481964  1.058329
  N    -1.511691 -1.952966  1.129136
  N    -2.060539  2.491492  0.967992
  N    -3.759374 -2.340860  0.033805
  N    -4.016313  1.521702 -0.266846
  N    -4.308537 -1.829893  3.813882
  N    -4.861724  1.618230  3.472371
  S    -5.237152 -1.867871  2.411973
  S    -5.514932  1.091193  2.030601
  S    -2.142561 -2.170173 -0.419478
  S    -2.457514  2.160916 -0.567017
  S    -2.678240 -1.672199  3.628155
  S    -3.327394  2.307717  3.470233
