16  
    
  C    -1.959303 -1.026443  2.244451
  C    -2.302925  2.419996  1.968690
  C    -3.122428 -1.671140  1.564812
  C    -3.575242  2.089402  1.416953
  N    -0.967104 -0.905841  1.399322
  N    -1.345533  2.538205  1.030225
  N    -3.026059 -1.710275  0.255729
  N    -3.590169  1.813606  0.111401
  N    -3.865249 -1.073715  3.987190
  N    -3.963075  2.399603  3.897776
  S    -4.540385 -1.650452  2.606636
  S    -4.907106  2.017030  2.600716
  S    -1.498456 -1.237520 -0.153899
  S    -2.047485  2.140538 -0.377240
  S    -2.223178 -0.816029  3.997401
  S    -2.418109  2.849639  3.612310
