16  
    
  C    -3.835153 -2.293139  1.620231
  C    -3.532332  1.867223  1.552831
  C    -5.168004 -2.474827  1.012689
  C    -4.710606  1.355879  0.988429
  N    -2.816793 -1.986191  0.831024
  N    -2.487631  2.154767  0.754209
  N    -5.090490 -2.370360 -0.322469
  N    -4.596969  1.142716 -0.330137
  N    -5.597889 -2.379675  3.554916
  N    -5.224251  1.574475  3.611221
  S    -6.484766 -2.739822  2.154264
  S    -5.883067  0.967052  2.203251
  S    -3.525120 -2.023448 -0.723791
  S    -3.087847  1.704477 -0.789645
  S    -3.954237 -2.508784  3.378741
  S    -3.656285  2.139948  3.334717
