16  
    
  C    -1.354269 -0.307726  2.055882
  C    -1.142693  3.050296  2.200641
  C    -2.483011 -0.982288  1.540695
  C    -2.513628  2.858447  1.695853
  N    -0.342600 -0.205130  1.168007
  N    -0.209584  3.238522  1.271723
  N    -2.463780 -1.213817  0.244785
  N    -2.485314  2.636446  0.389575
  N    -2.950124 -0.732066  4.115481
  N    -2.769874  2.995417  4.213052
  S    -3.744184 -1.262740  2.745836
  S    -3.711821  2.681032  2.899264
  S    -0.920128 -0.859450 -0.240458
  S    -0.977985  3.015746 -0.177182
  S    -1.355366 -0.160783  3.857037
  S    -1.165361  3.327088  3.957970
