16  
    
  C     1.112816  0.194463  2.916010
  C     0.746316  3.831230  3.156589
  C    -0.085320 -0.430886  2.512655
  C    -0.483440  3.340384  2.484099
  N     2.068603  0.318717  1.988908
  N     1.802986  3.925416  2.322744
  N    -0.068456 -0.777496  1.231161
  N    -0.441591  3.301670  1.129672
  N    -0.414227  0.063920  5.004214
  N    -0.862700  3.317731  5.070215
  S    -1.322105 -0.537908  3.698520
  S    -1.729907  3.184586  3.611870
  S     1.405821 -0.373186  0.613537
  S     1.177114  3.645953  0.739055
  S     1.156750  0.521143  4.593090
  S     0.714919  3.726387  4.927181
