16  
    
  C     0.008130 -0.581263  2.466220
  C    -0.178423  3.200873  2.611344
  C    -1.247916 -1.056705  1.862973
  C    -1.294550  2.606874  1.937655
  N     0.996674 -0.335925  1.615995
  N     0.712168  3.767771  1.790842
  N    -1.134833 -1.123753  0.557146
  N    -1.084387  2.256761  0.671048
  N    -1.767086 -0.887767  4.382764
  N    -1.926567  2.830848  4.424545
  S    -2.559160 -1.313892  2.988182
  S    -2.621171  2.286809  3.060754
  S     0.361009 -0.606042  0.073332
  S     0.408894  2.993104  0.322964
  S    -0.138069 -0.525344  4.139742
  S    -0.385950  3.493133  4.335661
