16  
    
  C    -5.724912 -3.012988  1.394143
  C    -5.971894  0.808083  1.519746
  C    -6.914934 -3.581213  0.779878
  C    -7.130927  0.168916  0.943447
  N    -4.785583 -2.672662  0.537613
  N    -5.096242  1.262067  0.599027
  N    -6.791805 -3.807868 -0.511331
  N    -7.034503  0.069997 -0.388325
  N    -7.450649 -3.383497  3.274879
  N    -7.471371  0.253366  3.507550
  S    -8.179086 -3.919422  1.849614
  S    -8.333550 -0.211132  2.069256
  S    -5.355047 -3.136806 -0.973032
  S    -5.656746  0.813246 -0.839479
  S    -5.887784 -2.819550  3.095742
  S    -6.023701  1.089647  3.251021
