16  
    
  C    -5.758976 -2.977973  1.501562
  C    -6.102989  0.946447  1.370974
  C    -6.903148 -3.480878  0.817131
  C    -7.301022  0.307263  0.891349
  N    -4.669082 -2.957367  0.710463
  N    -5.196785  1.351997  0.482634
  N    -6.750321 -3.574925 -0.494925
  N    -7.191602  0.115440 -0.415707
  N    -7.533930 -3.555367  3.339132
  N    -7.505058  0.175330  3.531720
  S    -8.310629 -3.777873  1.842901
  S    -8.323124 -0.390552  2.146607
  S    -5.150700 -3.314902 -0.838394
  S    -5.808369  0.801807 -0.952353
  S    -6.058384 -2.770639  3.262539
  S    -6.080989  0.968892  3.178371
