16  
    
  C    -3.529085 -2.522652  1.922085
  C    -3.725562  1.993618  1.814373
  C    -4.720955 -2.957566  1.186902
  C    -4.660039  0.995290  1.278508
  N    -2.454769 -2.293714  1.149116
  N    -2.673893  2.338922  1.029294
  N    -4.458949 -3.274022 -0.066050
  N    -4.417170  0.725055 -0.018133
  N    -5.413414 -2.495519  3.625082
  N    -5.425270  1.417222  3.717429
  S    -5.991208 -3.341868  2.292675
  S    -5.965136  0.571197  2.418104
  S    -2.881733 -2.759131 -0.370456
  S    -2.972365  1.487722 -0.456812
  S    -3.789535 -2.136251  3.626608
  S    -4.015396  2.278215  3.564589
