16  
    
  C    -4.711669 -2.645892  1.527758
  C    -4.736866  0.901602  1.445386
  C    -6.008783 -2.847467  1.006471
  C    -5.931713  0.617904  0.727552
  N    -3.718499 -2.513122  0.622837
  N    -3.655627  0.942074  0.647334
  N    -5.984511 -3.145066 -0.289877
  N    -5.869419  0.664126 -0.588570
  N    -6.347493 -2.549540  3.504145
  N    -6.529198  0.921430  3.223762
  S    -7.237670 -3.032953  2.168897
  S    -7.258243  0.540444  1.746551
  S    -4.437709 -3.007959 -0.774074
  S    -4.205345  1.000577 -0.917959
  S    -4.725002 -2.466676  3.260774
  S    -4.915245  1.132975  3.160819
