16  
    
  C     2.535556  1.069729  3.318456
  C     2.988457  5.444847  3.933392
  C     1.307988  0.618637  2.616639
  C     1.740856  5.024129  3.344574
  N     3.617157  1.204436  2.555034
  N     3.993420  5.448379  3.066001
  N     1.462233  0.412216  1.323371
  N     1.874603  4.501857  2.134533
  N     0.444097  1.161132  4.939470
  N     1.127149  5.704755  5.733604
  S    -0.165237  0.417647  3.606398
  S     0.397109  4.858479  4.474570
  S     3.035707  0.738922  0.937006
  S     3.429189  4.795847  1.584575
  S     2.156142  1.345646  5.004192
  S     2.759760  5.864988  5.652038
