16  
    
  C     3.257696  1.511214  3.727508
  C     3.275028  4.943949  3.491387
  C     1.996128  1.315703  3.038226
  C     2.030716  4.722652  2.795300
  N     4.319510  1.524967  2.907881
  N     4.294538  5.020944  2.604718
  N     2.033191  1.183376  1.697188
  N     2.102507  4.485972  1.486259
  N     1.455310  1.303036  5.586314
  N     1.326962  5.163099  5.288527
  S     0.611656  1.244479  4.168057
  S     0.630251  4.735784  3.861508
  S     3.645887  1.343874  1.330249
  S     3.666044  4.788575  1.103477
  S     3.047883  1.752282  5.411829
  S     2.948668  5.215090  5.198200
