16  
    
  C    -0.653933 -0.430325  2.662036
  C    -0.362031  3.314712  2.704534
  C    -1.909401 -0.819580  2.043040
  C    -1.403968  2.556743  2.056173
  N     0.315259 -0.226423  1.796928
  N     0.653893  3.661181  1.942490
  N    -1.786735 -1.167362  0.770179
  N    -1.075833  2.105436  0.850171
  N    -2.205658 -0.864525  4.657647
  N    -2.204247  3.065009  4.441000
  S    -3.092920 -0.990967  3.243617
  S    -2.834407  2.300589  3.130855
  S    -0.193406 -0.811466  0.332562
  S     0.391554  2.810143  0.514962
  S    -0.670586 -0.298436  4.378530
  S    -0.728721  3.722978  4.303602
