16  
    
  C    -1.354427 -0.920453  2.360232
  C    -1.561649  2.852038  2.019157
  C    -2.507922 -1.402507  1.549563
  C    -2.583379  1.996461  1.393217
  N    -0.268045 -0.717228  1.663753
  N    -0.504905  3.159472  1.264950
  N    -2.278108 -1.516295  0.270982
  N    -2.359218  1.821889  0.088866
  N    -3.289817 -1.517353  3.984879
  N    -3.358763  2.388939  3.868082
  S    -3.963132 -1.686475  2.517058
  S    -3.878061  1.640528  2.465833
  S    -0.678533 -1.025906  0.052737
  S    -0.827974  2.461995 -0.196732
  S    -1.756265 -0.885702  4.054728
  S    -1.874098  3.152266  3.727210
