16  
    
  C    -0.992911 -0.759585  2.310612
  C    -0.766934  3.143955  2.621280
  C    -2.229314 -1.334708  1.725707
  C    -1.918306  2.562450  2.025903
  N    -0.017766 -0.600045  1.428785
  N     0.299473  3.085035  1.844154
  N    -2.146446 -1.630701  0.463592
  N    -1.803891  2.255795  0.721361
  N    -2.850712 -0.768401  4.177170
  N    -2.514387  3.010294  4.434451
  S    -3.645456 -1.366466  2.823307
  S    -3.312745  2.629770  3.085243
  S    -0.570484 -1.219843 -0.024762
  S    -0.252856  2.678185  0.328506
  S    -1.234225 -0.319070  3.933611
  S    -0.922752  3.278328  4.382570
