16  
    
  C    -5.162439 -2.515480  1.875543
  C    -5.373531  0.987673  1.575934
  C    -6.401704 -2.739589  1.233019
  C    -6.670989  0.735741  0.958686
  N    -4.123984 -2.499773  1.006631
  N    -4.307757  1.115427  0.766384
  N    -6.348576 -3.138724 -0.036742
  N    -6.663064  0.663097 -0.379679
  N    -6.916985 -2.048094  3.615709
  N    -7.147312  1.064542  3.427500
  S    -7.672166 -2.763435  2.354701
  S    -7.987771  0.970386  2.063545
  S    -4.760044 -2.874153 -0.434962
  S    -5.005909  0.912712 -0.778748
  S    -5.262319 -2.092587  3.565429
  S    -5.556968  1.354581  3.274545
