16  
    
  C     0.698347 -0.225936  2.747173
  C     0.338468  3.578902  2.923170
  C    -0.596885 -0.472311  2.151388
  C    -0.831266  3.165118  2.234603
  N     1.709292 -0.065659  1.893312
  N     1.378259  3.852058  2.170252
  N    -0.612160 -0.410433  0.814668
  N    -0.827246  3.513104  0.936127
  N    -1.011960 -0.422194  4.794749
  N    -1.407058  3.123581  4.728355
  S    -1.861337 -0.648489  3.414086
  S    -2.227162  2.866250  3.326352
  S     0.988325 -0.111253  0.385227
  S     0.842572  3.785194  0.588665
  S     0.595517 -0.049573  4.539993
  S     0.215011  3.410326  4.607597
