16  
    
  C     1.058052  0.275676  3.081356
  C     1.069604  4.097352  2.651954
  C    -0.179511  0.038497  2.361086
  C    -0.084450  3.507285  2.066296
  N     2.121751  0.286329  2.330768
  N     2.076914  4.339997  1.786118
  N    -0.037575 -0.123575  1.066393
  N     0.075631  2.949767  0.858776
  N    -0.801682 -0.049175  4.808934
  N    -0.844773  4.254434  4.393527
  S    -1.549824  0.057594  3.361430
  S    -1.425302  3.327785  3.167126
  S     1.595857  0.029229  0.758431
  S     1.627900  3.455513  0.389611
  S     0.795959  0.298599  4.756870
  S     0.774167  4.729902  4.210000
