16  
    
  C     2.150519  1.097233  3.428313
  C     2.029299  4.918966  3.158722
  C     0.903671  0.688868  2.867819
  C     0.839187  4.644647  2.430577
  N     3.174217  1.218018  2.583553
  N     3.071265  5.253785  2.390318
  N     1.030050  0.439598  1.539783
  N     1.106193  4.411166  1.139532
  N     0.595957  1.027635  5.395241
  N     0.224814  4.388345  5.031028
  S    -0.347162  0.551301  4.139456
  S    -0.473194  4.185515  3.494631
  S     2.586654  0.739485  1.143071
  S     2.647976  4.953919  0.830018
  S     2.166577  1.197477  5.158883
  S     1.841564  4.899506  4.818513
