16  
    
  C    -4.521786 -2.362442  1.525947
  C    -4.367191  1.442187  1.910234
  C    -5.594627 -2.874013  0.699886
  C    -5.535876  0.750292  1.345292
  N    -3.540313 -1.846079  0.790813
  N    -3.452604  1.773989  0.982383
  N    -5.395040 -2.938008 -0.591361
  N    -5.557862  0.775165  0.010085
  N    -6.349690 -2.999822  3.212444
  N    -5.948550  0.864334  4.014825
  S    -7.031010 -3.267932  1.653703
  S    -6.824673  0.492361  2.592476
  S    -3.876529 -2.211074 -0.792206
  S    -4.126154  1.444107 -0.516575
  S    -4.768475 -2.390205  3.257424
  S    -4.446325  1.574122  3.708796
