16  
    
  C     2.960220  1.485552  3.407332
  C     2.996901  5.058713  3.220029
  C     1.731379  1.117753  2.772767
  C     1.801867  4.484363  2.609642
  N     4.011825  1.733264  2.632735
  N     4.001761  5.252359  2.353286
  N     1.836160  1.101396  1.472132
  N     1.862712  4.401067  1.297813
  N     1.234603  1.018873  5.264960
  N     1.153599  4.998770  5.078458
  S     0.400973  0.811481  3.866811
  S     0.481885  4.362357  3.740963
  S     3.396853  1.406077  1.065519
  S     3.377152  4.777174  0.834308
  S     2.757595  1.585686  5.112474
  S     2.723278  5.410823  4.937544
