16  
    
  C     0.716352  0.311955  3.079312
  C     0.655820  3.901880  2.974945
  C    -0.558984  0.205970  2.456859
  C    -0.551753  3.451709  2.365888
  N     1.768069  0.365872  2.272595
  N     1.673136  3.995967  2.125652
  N    -0.535554  0.005929  1.133249
  N    -0.375039  2.848278  1.177955
  N    -1.102588  0.236700  5.003858
  N    -1.150647  3.948714  4.808718
  S    -1.939393  0.288384  3.567516
  S    -1.823226  3.216699  3.474592
  S     1.095302  0.131977  0.753639
  S     1.157117  3.375681  0.680744
  S     0.533624  0.486551  4.794751
  S     0.436085  4.399676  4.663637
