16  
    
  C     2.061229  0.585996  3.211162
  C     1.996658  4.365679  3.002428
  C     0.779185  0.271221  2.691574
  C     0.766588  4.003172  2.410716
  N     3.020565  0.703328  2.309969
  N     3.053776  4.351251  2.194385
  N     0.756038  0.011257  1.374642
  N     0.815634  3.719883  1.121024
  N     0.398820  0.790909  5.079148
  N     0.247272  4.291273  4.966753
  S    -0.506620  0.662089  3.766248
  S    -0.506502  3.943438  3.533852
  S     2.355460  0.363454  0.833261
  S     2.457658  3.960029  0.717394
  S     2.049221  0.899143  4.900887
  S     1.906512  4.811335  4.735844
