16  
    
  C    -1.470722 -0.988474  2.497299
  C    -1.460987  2.595177  2.281973
  C    -2.476710 -1.582900  1.717695
  C    -2.560857  1.970813  1.561401
  N    -0.323721 -0.758837  1.816806
  N    -0.489347  2.999628  1.458103
  N    -2.182719 -1.655191  0.384454
  N    -2.280543  1.687275  0.288550
  N    -3.437259 -1.437933  4.142158
  N    -3.408996  2.462585  3.920298
  S    -4.001437 -1.916643  2.632496
  S    -3.924208  1.726048  2.538080
  S    -0.640410 -1.057113  0.219446
  S    -0.809284  2.340908 -0.034906
  S    -1.827486 -1.029139  4.181069
  S    -1.856458  3.020297  3.917691
