16  
    
  C     2.588601  0.962397  3.103428
  C     2.452151  5.004880  3.509116
  C     1.394560  0.554998  2.423095
  C     1.383151  4.284475  2.897488
  N     3.622488  1.179738  2.325500
  N     3.474727  5.216816  2.680078
  N     1.548667  0.387981  1.089131
  N     1.509139  4.184038  1.573001
  N     0.891936  0.692747  4.972481
  N     0.768685  4.490266  5.486800
  S     0.103421  0.452423  3.587564
  S     0.030253  4.180318  4.001213
  S     3.111336  0.873869  0.783333
  S     3.061397  4.650499  1.203094
  S     2.422373  1.248536  4.817138
  S     2.290323  5.154255  5.222951
