16  
    
  C    -3.421328 -2.245137  1.895574
  C    -3.800644  1.999874  1.890933
  C    -4.520628 -2.923359  1.270705
  C    -4.709398  1.012120  1.281680
  N    -2.392455 -1.989635  1.100846
  N    -2.755573  2.365872  1.188337
  N    -4.313438 -3.338493  0.023134
  N    -4.441700  0.747272  0.022766
  N    -5.344102 -2.490410  3.699184
  N    -5.416284  1.326490  3.659682
  S    -5.964827 -3.096809  2.269458
  S    -5.939383  0.513557  2.326269
  S    -2.768784 -2.797661 -0.323121
  S    -3.066301  1.608868 -0.315189
  S    -3.771002 -1.990112  3.568546
  S    -4.167800  2.435762  3.547918
