16  
    
  C    -3.930171 -1.859527  1.706506
  C    -3.705060  1.733619  1.812470
  C    -5.149904 -2.479766  1.104879
  C    -4.952772  1.490516  1.166054
  N    -2.858471 -1.676330  0.928131
  N    -2.720967  2.033075  0.971044
  N    -4.970051 -2.524406 -0.206309
  N    -4.875910  1.347290 -0.148376
  N    -5.857861 -1.892410  3.450644
  N    -5.468239  1.602444  3.741501
  S    -6.542999 -2.645577  2.142852
  S    -6.212249  1.112050  2.340184
  S    -3.446602 -2.099068 -0.591429
  S    -3.344410  1.752936 -0.563557
  S    -4.193314 -1.544815  3.420817
  S    -3.809381  1.800173  3.599698
