16  
    
  C     1.074083  0.288378  3.062694
  C     1.007592  4.229834  2.608514
  C    -0.112963  0.040598  2.334259
  C    -0.050724  3.382602  2.034923
  N     2.234240  0.297490  2.307652
  N     2.018694  4.292682  1.743404
  N     0.082528 -0.106095  1.025348
  N     0.140151  3.114569  0.753750
  N    -0.904322  0.044329  4.867015
  N    -0.884800  4.195222  4.322763
  S    -1.599109  0.137431  3.351595
  S    -1.384810  3.279504  3.051965
  S     1.728150  0.010160  0.777888
  S     1.690742  3.504948  0.394269
  S     0.802033  0.363914  4.788344
  S     0.738407  4.697259  4.306168
