16  
    
  C     1.995369  0.988363  3.018734
  C     2.202375  4.405504  3.100174
  C     0.784653  0.460584  2.398656
  C     1.078163  4.088074  2.296792
  N     2.990916  1.174619  2.147438
  N     3.324342  4.303052  2.405458
  N     0.937660  0.136811  1.112564
  N     1.304060  3.761674  1.027496
  N     0.231737  1.068048  4.776621
  N     0.222628  4.480015  4.720811
  S    -0.595656  0.689449  3.448152
  S    -0.375513  3.811708  3.193508
  S     2.463085  0.610733  0.706109
  S     2.963573  4.012364  0.806124
  S     1.852900  1.314847  4.723018
  S     1.904912  4.718728  4.758490
