16  
    
  C    -1.447885 -1.175634  2.607788
  C    -1.487266  2.712064  2.318886
  C    -2.520045 -1.547160  1.750105
  C    -2.565600  1.992788  1.623364
  N    -0.361747 -0.836586  1.933297
  N    -0.350339  2.778032  1.575180
  N    -2.298607 -1.633945  0.419538
  N    -2.359501  1.823993  0.297547
  N    -3.366358 -1.615366  4.164326
  N    -3.445077  2.455840  4.030680
  S    -3.938023 -1.954387  2.629254
  S    -4.033780  1.755548  2.606612
  S    -0.674934 -1.145101  0.326657
  S    -0.802794  2.320389  0.044495
  S    -1.846256 -0.960536  4.279177
  S    -1.882088  3.032527  3.942767
