16  
    
  C    -3.945246 -1.927643  1.752200
  C    -3.688128  1.772604  1.832792
  C    -5.095831 -2.368839  1.067587
  C    -4.958708  1.427015  1.206840
  N    -2.926008 -1.669795  0.913769
  N    -2.733467  1.915542  0.892910
  N    -4.962771 -2.593397 -0.236341
  N    -4.918771  1.362946 -0.134746
  N    -5.843952 -1.888301  3.522863
  N    -5.512695  1.620345  3.763592
  S    -6.539781 -2.543861  2.127998
  S    -6.288048  1.120409  2.360041
  S    -3.396594 -2.116633 -0.605010
  S    -3.322218  1.691548 -0.606057
  S    -4.250475 -1.512748  3.378930
  S    -3.843803  1.755113  3.582083
