16  
    
  C    -2.999149 -1.813760  2.123640
  C    -3.345353  1.521179  2.035879
  C    -4.277878 -2.096231  1.495315
  C    -4.655052  1.328239  1.507431
  N    -1.986873 -1.950152  1.261180
  N    -2.354239  1.765031  1.187566
  N    -4.226241 -2.030735  0.153598
  N    -4.639908  1.172958  0.191984
  N    -4.652970 -1.970855  4.071392
  N    -5.017487  1.615378  4.015139
  S    -5.554843 -2.118425  2.712014
  S    -5.871240  1.117829  2.662206
  S    -2.598761 -1.990795 -0.243366
  S    -3.122109  1.469080 -0.273935
  S    -3.019861 -1.612868  3.877201
  S    -3.357339  1.755506  3.747217
