16  
    
  C     2.270471  1.020617  3.470805
  C     2.138761  4.777120  3.187933
  C     1.003492  0.644626  2.867884
  C     0.903305  4.545733  2.507855
  N     3.211431  1.140042  2.559074
  N     3.046451  5.220407  2.326096
  N     0.991606  0.602011  1.541277
  N     1.000139  4.406567  1.185474
  N     0.505680  0.962141  5.344953
  N     0.424402  4.354055  5.053896
  S    -0.301872  0.457014  3.980737
  S    -0.347569  4.082199  3.546070
  S     2.510489  0.940471  1.073498
  S     2.522858  4.910946  0.794393
  S     2.064043  1.379545  5.212792
  S     2.084801  4.692191  4.918708
