16  
    
  C    -2.988904 -1.882846  2.077788
  C    -3.358414  1.532007  2.064197
  C    -4.284697 -2.120263  1.480455
  C    -4.675028  1.326184  1.474165
  N    -1.922535 -1.893600  1.240901
  N    -2.338636  1.706844  1.221033
  N    -4.238219 -2.101102  0.147705
  N    -4.646000  1.124470  0.154920
  N    -4.614842 -1.974400  4.045959
  N    -5.035245  1.642568  3.985862
  S    -5.551760 -2.149129  2.690156
  S    -5.915832  1.122108  2.663553
  S    -2.629515 -2.006307 -0.270991
  S    -3.088535  1.415651 -0.293081
  S    -3.011104 -1.593937  3.848287
  S    -3.360191  1.745952  3.797636
