16  
    
  C    -5.205804 -2.997881  1.430040
  C    -5.514210  1.117902  1.314514
  C    -6.494229 -3.413703  0.857242
  C    -6.653766  0.482323  0.590325
  N    -4.360230 -2.484576  0.553545
  N    -4.462649  1.455842  0.553272
  N    -6.457282 -3.534119 -0.482288
  N    -6.507121  0.485674 -0.743801
  N    -7.009561 -2.882844  3.311444
  N    -7.272446  0.665284  3.044830
  S    -7.814011 -3.623158  2.028271
  S    -7.957064  0.034706  1.638855
  S    -4.987135 -2.825459 -0.983999
  S    -4.938987  1.047064 -1.044218
  S    -5.385899 -2.679356  3.159958
  S    -5.690258  1.115995  3.098409
