16  
    
  C     2.467566  0.985627  3.314525
  C     2.425046  4.714279  3.431417
  C     1.251902  0.761408  2.566766
  C     1.276754  4.237224  2.685408
  N     3.529433  1.314241  2.573795
  N     3.490562  5.068145  2.709686
  N     1.388365  0.949286  1.261774
  N     1.493210  4.080044  1.365198
  N     0.686332  0.636250  5.036230
  N     0.531365  4.293140  5.236485
  S    -0.104948  0.323331  3.609509
  S    -0.146673  3.942868  3.717027
  S     3.028845  1.327495  0.998271
  S     3.002315  4.802989  1.143679
  S     2.228320  1.022848  4.981388
  S     2.208308  4.851563  5.110496
