16  
    
  C    -0.161130 -0.400373  2.746326
  C     0.082913  3.406972  2.444528
  C    -1.289724 -0.954120  1.960952
  C    -1.037992  2.863115  1.757383
  N     0.932453 -0.216836  1.982326
  N     1.144311  3.533688  1.627062
  N    -1.101626 -0.945562  0.637542
  N    -0.979255  2.943651  0.422050
  N    -2.109838 -0.694351  4.339770
  N    -1.681988  2.896603  4.246391
  S    -2.676959 -1.346687  2.920247
  S    -2.342572  2.449298  2.789539
  S     0.452173 -0.495922  0.463779
  S     0.613628  3.352695  0.051519
  S    -0.493737 -0.278207  4.448657
  S    -0.079059  3.492205  4.182070
