16  
    
  C    -0.850262 -0.729426  2.319051
  C    -0.718994  2.999983  2.430288
  C    -1.972045 -1.513370  1.732044
  C    -1.981940  2.669290  1.861696
  N     0.200673 -0.573792  1.498437
  N     0.239073  3.323605  1.544173
  N    -1.669915 -1.829070  0.491610
  N    -1.934208  2.407887  0.536904
  N    -2.768420 -0.969697  4.070502
  N    -2.432199  2.737732  4.400701
  S    -3.429655 -1.488878  2.647795
  S    -3.249543  2.556998  2.962701
  S    -0.245253 -1.259900  0.046492
  S    -0.387078  2.804254  0.061854
  S    -1.187442 -0.398580  3.976073
  S    -0.839102  3.238991  4.185510
