16  
    
  C    -1.513619 -1.139005  2.295217
  C    -1.871427  2.558604  2.155335
  C    -2.844109 -1.305291  1.693302
  C    -3.017006  2.022008  1.520476
  N    -0.533734 -0.959187  1.392224
  N    -0.836505  2.606157  1.330569
  N    -2.801003 -1.607807  0.360970
  N    -2.951756  1.714252  0.228735
  N    -3.246787 -0.913708  4.240670
  N    -3.505082  2.157008  4.069707
  S    -4.159033 -1.236144  2.889179
  S    -4.331883  1.843240  2.681878
  S    -1.209284 -1.405901 -0.106798
  S    -1.366367  2.168571 -0.171522
  S    -1.556591 -0.930247  3.996624
  S    -1.899930  2.574608  3.878221
