16  
    
  C    -0.767395 -0.857026  2.400633
  C    -0.870320  3.070008  2.443168
  C    -2.003188 -1.215881  1.747732
  C    -2.151528  2.711186  1.828190
  N     0.326781 -0.601779  1.675899
  N     0.145429  3.168498  1.596882
  N    -1.791420 -1.472855  0.447277
  N    -2.051073  2.660433  0.517880
  N    -2.682853 -0.899209  4.148441
  N    -2.615725  2.954132  4.413039
  S    -3.328654 -1.644335  2.789801
  S    -3.409100  2.663139  2.969246
  S    -0.190486 -1.019727  0.113765
  S    -0.463744  2.819425  0.103593
  S    -1.092013 -0.581548  4.107841
  S    -0.988928  3.383241  4.173534
