16  
    
  C     3.321314  1.480236  3.337394
  C     3.106464  5.046836  3.442218
  C     1.996702  1.382491  2.776607
  C     1.844728  4.598011  2.867514
  N     4.313260  1.431127  2.444828
  N     4.141036  5.075147  2.614018
  N     1.972034  1.212543  1.448067
  N     1.948758  4.345517  1.567268
  N     1.664340  1.770566  5.319034
  N     1.442113  5.002473  5.427985
  S     0.758951  1.648456  3.953264
  S     0.538193  4.648174  4.096542
  S     3.559833  1.312486  1.009997
  S     3.559979  4.741892  1.118796
  S     3.269455  1.806776  5.079236
  S     3.029665  5.338261  5.145131
