16  
    
  C    -0.069035 -0.422200  2.419205
  C    -0.319338  3.346355  2.725611
  C    -1.276255 -0.918731  1.819089
  C    -1.615017  3.222283  2.058294
  N     0.934789 -0.264302  1.555493
  N     0.654594  3.410849  1.823376
  N    -1.207353 -0.991243  0.485651
  N    -1.610627  2.970025  0.735988
  N    -1.888854 -0.588474  4.249434
  N    -2.091285  3.239415  4.656828
  S    -2.609152 -1.315062  2.925214
  S    -2.879162  2.885306  3.207775
  S     0.310872 -0.640871  0.036899
  S    -0.021294  3.260467  0.299099
  S    -0.335721 -0.040089  4.111728
  S    -0.472031  3.707646  4.426005
