16  
    
  C     0.701901  0.375421  2.933766
  C     0.641381  3.720533  2.794969
  C    -0.538313 -0.208254  2.389392
  C    -0.597860  3.314744  2.175756
  N     1.679546  0.519768  2.055891
  N     1.594367  3.962648  1.937783
  N    -0.453485 -0.420986  1.082184
  N    -0.644577  3.273568  0.861556
  N    -0.969798  0.244097  4.904102
  N    -0.939099  3.477754  4.790852
  S    -1.833533 -0.135903  3.509832
  S    -1.827299  3.235833  3.360284
  S     1.068964  0.013257  0.585106
  S     0.927098  3.728512  0.386008
  S     0.652061  0.504409  4.678325
  S     0.679235  3.644115  4.517453
