16  
    
  C     1.033077  0.281090  2.995705
  C     0.582246  3.648202  2.969562
  C    -0.101513 -0.090641  2.227695
  C    -0.540850  3.110195  2.165881
  N     2.125710  0.504367  2.271192
  N     1.519956  4.274511  2.232069
  N     0.049043 -0.125738  0.927933
  N    -0.206529  2.941249  0.915825
  N    -0.829379 -0.183086  4.770459
  N    -1.478157  3.169283  4.518470
  S    -1.526153 -0.323748  3.286627
  S    -1.927084  2.548968  3.046851
  S     1.687802  0.279841  0.647206
  S     1.300281  3.674964  0.657654
  S     0.843050  0.235668  4.785366
  S     0.043418  3.757504  4.617392
