16  
    
  C     0.631151  0.344677  2.985477
  C     0.724708  3.602413  2.804310
  C    -0.541297 -0.127279  2.396613
  C    -0.553695  3.385415  2.225674
  N     1.626731  0.474160  2.110754
  N     1.627503  4.069529  1.903706
  N    -0.481147 -0.370005  1.086982
  N    -0.583748  3.298690  0.885471
  N    -0.998266  0.269907  4.888065
  N    -0.935066  3.526687  4.787367
  S    -1.870295 -0.103102  3.494322
  S    -1.852928  3.237672  3.381409
  S     1.044738 -0.002047  0.626930
  S     0.942267  3.699972  0.418189
  S     0.683660  0.493399  4.719639
  S     0.655418  3.732074  4.539082
