16  
    
  C    -1.412627 -0.977497  2.434777
  C    -1.502498  2.793269  2.137791
  C    -2.498095 -1.484714  1.568746
  C    -2.541582  2.072174  1.461807
  N    -0.390596 -0.652361  1.711584
  N    -0.514673  3.140166  1.311371
  N    -2.227372 -1.573267  0.294780
  N    -2.233715  1.656478  0.230644
  N    -3.369959 -1.449803  4.056789
  N    -3.378555  2.440742  3.843212
  S    -3.937214 -1.753064  2.463530
  S    -3.925210  1.637406  2.504589
  S    -0.694756 -1.052662  0.161454
  S    -0.818482  2.404593 -0.173183
  S    -1.745363 -0.960096  4.128068
  S    -1.850498  3.034469  3.776357
