16  
    
  C    -1.954447 -1.162612  2.175071
  C    -2.407707  2.395416  1.959828
  C    -3.145358 -1.572006  1.526622
  C    -3.693233  2.026368  1.414639
  N    -0.901257 -0.935603  1.357960
  N    -1.396786  2.535781  1.098287
  N    -3.000232 -1.761183  0.210625
  N    -3.648522  1.869007  0.101238
  N    -3.799398 -1.125115  3.995400
  N    -4.046040  2.414350  3.965043
  S    -4.483834 -1.808243  2.621688
  S    -4.938286  2.018013  2.595303
  S    -1.453322 -1.221031 -0.187989
  S    -2.086121  2.170855 -0.404727
  S    -2.195706 -0.830385  3.891500
  S    -2.472531  2.924851  3.640071
