16  
    
  C     2.643445  1.288991  3.622408
  C     2.897782  4.992487  3.636510
  C     1.503159  0.928333  2.824182
  C     1.627233  5.051946  2.910522
  N     3.734320  1.507456  2.908474
  N     3.963687  5.038265  2.831706
  N     1.728365  0.909236  1.500876
  N     1.761401  4.798800  1.588451
  N     0.882666  0.781267  5.400257
  N     1.150478  5.272259  5.543005
  S     0.153881  0.550890  3.911376
  S     0.324288  5.108570  4.127049
  S     3.315392  1.343717  1.330768
  S     3.382563  4.917534  1.251818
  S     2.521980  1.150738  5.347648
  S     2.798835  5.239782  5.343015
