16  
    
  C     1.387953  0.730886  2.897199
  C     0.882415  4.170810  2.521345
  C     0.185325  0.291397  2.275447
  C    -0.175488  3.443939  1.936536
  N     2.382034  1.034426  2.084192
  N     1.983557  4.301755  1.781824
  N     0.345081  0.180724  0.939951
  N     0.005962  3.375924  0.627204
  N    -0.234910  0.208229  4.899103
  N    -0.897490  3.723571  4.348842
  S    -1.062467  0.113414  3.422296
  S    -1.550320  3.155049  2.952604
  S     1.905077  0.674715  0.578086
  S     1.504967  3.888072  0.287377
  S     1.332022  0.757109  4.643612
  S     0.606601  4.351729  4.225077
