16  
    
  C     3.325038  1.474584  3.345591
  C     3.110791  5.055554  3.445275
  C     2.003489  1.373603  2.777183
  C     1.851123  4.563028  2.880310
  N     4.319495  1.439770  2.469284
  N     4.140667  5.069815  2.613588
  N     1.970118  1.206556  1.444691
  N     1.951210  4.357251  1.563734
  N     1.672569  1.778898  5.319771
  N     1.450126  5.002371  5.430361
  S     0.755683  1.649390  3.966244
  S     0.543197  4.657263  4.096171
  S     3.554966  1.320319  1.014449
  S     3.556394  4.741373  1.132318
  S     3.274343  1.788815  5.072403
  S     3.024433  5.341337  5.140465
