16  
    
  C     1.124670  0.151233  2.930276
  C     0.805527  3.845154  3.105160
  C    -0.145312 -0.404192  2.482388
  C    -0.408131  3.362129  2.504425
  N     2.029917  0.298135  1.991417
  N     1.816334  3.829910  2.246894
  N    -0.124781 -0.781206  1.230029
  N    -0.422706  3.253996  1.193075
  N    -0.347510  0.019341  4.945348
  N    -0.830260  3.363576  5.072308
  S    -1.366878 -0.557721  3.709237
  S    -1.730631  3.223359  3.618797
  S     1.370380 -0.342579  0.611137
  S     1.158633  3.627516  0.717606
  S     1.198261  0.502292  4.623472
  S     0.751337  3.796943  4.877280
