16  
    
  C     2.063400  0.814586  3.105417
  C     2.153677  4.407062  3.014661
  C     0.796220  0.655016  2.499874
  C     0.944023  3.991822  2.379549
  N     3.121685  0.575745  2.305207
  N     3.149357  4.712574  2.223374
  N     0.819904  0.388017  1.203797
  N     1.127002  3.590108  1.150639
  N     0.346737  1.088277  4.955758
  N     0.250621  4.473173  4.824797
  S    -0.513919  0.561447  3.595855
  S    -0.419108  3.964835  3.357124
  S     2.436989  0.217002  0.819626
  S     2.741912  4.012820  0.727620
  S     1.950848  1.096978  4.793879
  S     1.890624  4.793765  4.713938
