16  
    
  C    -1.408166 -1.154157  2.199503
  C    -1.732874  2.372192  1.974340
  C    -2.692238 -1.351330  1.571923
  C    -3.028212  2.073628  1.324256
  N    -0.435009 -1.261048  1.300572
  N    -0.774605  2.344771  1.092843
  N    -2.678822 -1.461904  0.257098
  N    -3.021810  1.984633 -0.006477
  N    -3.206986 -1.080796  4.091063
  N    -3.387806  2.197300  3.891141
  S    -4.072338 -1.183321  2.659622
  S    -4.248456  1.844408  2.540526
  S    -1.098530 -1.497606 -0.184569
  S    -1.439153  2.242964 -0.415773
  S    -1.556035 -0.810343  3.929678
  S    -1.792106  2.570654  3.664501
