16  
    
  C    -1.485261 -1.213130  2.677846
  C    -1.636761  2.662300  2.373381
  C    -2.624492 -1.589991  1.891326
  C    -2.840394  2.181262  1.681777
  N    -0.417823 -0.806265  2.044476
  N    -0.525284  2.747764  1.625902
  N    -2.374018 -1.702221  0.621302
  N    -2.583250  1.830394  0.415733
  N    -3.473117 -1.438849  4.349126
  N    -3.533751  2.445364  4.145244
  S    -4.042430 -1.905075  2.799466
  S    -4.256069  2.103088  2.670537
  S    -0.802410 -1.179201  0.449232
  S    -0.991326  2.268051  0.095395
  S    -1.802538 -1.231166  4.404843
  S    -1.916998  2.861011  4.120423
