16  
    
  C     0.004636 -0.669850  2.421350
  C    -0.276139  3.323240  2.610896
  C    -1.273093 -0.922808  1.794114
  C    -1.359854  2.534902  2.000126
  N     0.989886 -0.398229  1.577654
  N     0.714211  3.591113  1.771890
  N    -1.199655 -1.074214  0.476191
  N    -1.166767  2.390835  0.683671
  N    -1.666024 -0.852312  4.356000
  N    -1.909030  2.869390  4.515066
  S    -2.553670 -1.326253  2.964113
  S    -2.653374  2.250078  3.099685
  S     0.368675 -0.699545  0.108922
  S     0.370778  2.950851  0.308300
  S    -0.073089 -0.457898  4.181695
  S    -0.385472  3.484745  4.329042
