16  
    
  C     2.514078  1.051751  3.256183
  C     2.446737  4.782716  3.444953
  C     1.282369  0.810627  2.552201
  C     1.342689  4.132246  2.741550
  N     3.560897  1.295762  2.477632
  N     3.536766  4.999467  2.686529
  N     1.454114  0.948735  1.244798
  N     1.530039  4.215001  1.429213
  N     0.616492  0.709212  5.029480
  N     0.586490  4.362465  5.221687
  S    -0.089375  0.270092  3.579821
  S    -0.148850  3.934523  3.728770
  S     3.055739  1.247537  0.942620
  S     3.047477  4.803551  1.112176
  S     2.296486  0.992058  4.993210
  S     2.147277  4.886594  5.189054
