16  
    
  C     2.431312  0.982870  3.303026
  C     2.385007  4.662130  3.422906
  C     1.233359  0.716187  2.552733
  C     1.210087  4.293123  2.666981
  N     3.519027  1.330627  2.643656
  N     3.406758  5.115961  2.703662
  N     1.363998  0.928868  1.252764
  N     1.476479  4.065802  1.386323
  N     0.647845  0.579822  5.072700
  N     0.565949  4.269601  5.183134
  S    -0.094147  0.370426  3.613247
  S    -0.110793  3.951130  3.714005
  S     2.971256  1.359919  1.034895
  S     2.975241  4.777854  1.133062
  S     2.214497  1.039361  5.006662
  S     2.210464  4.819177  5.086037
