16  
    
  C    -4.277544 -1.827379  1.861456
  C    -4.168024  1.557091  1.847903
  C    -5.510034 -2.403933  1.299894
  C    -5.388477  1.083606  1.323131
  N    -3.205894 -1.725721  1.074232
  N    -3.208852  1.698698  0.944616
  N    -5.272256 -2.789171  0.057128
  N    -5.276662  0.628187  0.060623
  N    -6.000751 -2.210340  3.762668
  N    -5.876190  1.723973  3.857826
  S    -6.857399 -2.290921  2.371200
  S    -6.648881  0.952395  2.585623
  S    -3.763208 -2.353653 -0.360161
  S    -3.808338  1.043908 -0.493637
  S    -4.445267 -1.499411  3.569408
  S    -4.235408  1.900911  3.664007
