16  
    
  C    -2.661375 -1.335079  2.163943
  C    -2.579903  2.291435  2.276670
  C    -3.891537 -1.824512  1.514659
  C    -3.738760  1.905288  1.581735
  N    -1.635796 -1.203263  1.353757
  N    -1.624581  2.752926  1.468247
  N    -3.766638 -1.940599  0.204072
  N    -3.627073  1.811036  0.259996
  N    -4.395598 -1.519031  4.066215
  N    -4.262504  1.934493  4.085646
  S    -5.242070 -2.048148  2.713911
  S    -5.049127  1.609478  2.680185
  S    -2.222776 -1.523529 -0.179256
  S    -2.083669  2.410317 -0.042740
  S    -2.793515 -1.290164  3.862323
  S    -2.700413  2.420063  4.001752
