16  
    
  C    -5.450904 -2.643980  1.558466
  C    -5.531339  0.932376  1.346075
  C    -6.650464 -3.087250  0.887847
  C    -6.697380  0.426947  0.696304
  N    -4.377723 -2.697935  0.771027
  N    -4.549040  1.253452  0.505785
  N    -6.553123 -3.117726 -0.448782
  N    -6.507199  0.329266 -0.597197
  N    -7.259233 -3.336732  3.379681
  N    -7.201695  0.459272  3.238849
  S    -8.032430 -3.392192  1.906249
  S    -8.019979  0.123264  1.777649
  S    -4.951515 -3.048791 -0.791226
  S    -5.003858  0.862309 -0.996623
  S    -5.755688 -2.539727  3.320153
  S    -5.695508  1.222940  3.116649
