16  
    
  C    -4.694205 -2.554603  1.638212
  C    -4.869606  1.269697  1.486165
  C    -5.952360 -3.108780  1.133367
  C    -5.984747  0.662351  0.819152
  N    -3.767605 -2.298165  0.752463
  N    -3.806805  1.415575  0.737233
  N    -5.964061 -3.177040 -0.194400
  N    -5.773869  0.391650 -0.480532
  N    -6.316251 -2.786732  3.690833
  N    -6.598063  0.755270  3.369711
  S    -7.225988 -2.998296  2.304873
  S    -7.236472  0.274759  1.915672
  S    -4.440713 -2.682052 -0.724232
  S    -4.245103  0.853219 -0.736593
  S    -4.770016 -2.165421  3.340183
  S    -4.971359  1.280847  3.246356
