16  
    
  C    -3.516202 -2.355431  1.939135
  C    -3.702486  1.963260  1.856652
  C    -4.607825 -2.973913  1.255895
  C    -4.686446  1.098145  1.280979
  N    -2.492137 -2.204620  1.147354
  N    -2.756740  2.332208  1.007519
  N    -4.381962 -3.294192 -0.018799
  N    -4.408677  0.753544  0.034007
  N    -5.364496 -2.480192  3.619692
  N    -5.456914  1.369847  3.779585
  S    -5.990627 -3.285570  2.259126
  S    -5.926378  0.563442  2.407357
  S    -2.852822 -2.801093 -0.333882
  S    -2.993861  1.530759 -0.393868
  S    -3.765501 -2.091505  3.610335
  S    -4.109029  2.300534  3.509651
