16  
    
  C    -0.033011 -0.686799  2.487457
  C    -0.206932  3.016548  2.628642
  C    -1.206152 -1.181305  1.888235
  C    -1.543016  2.683433  2.061050
  N     0.965919 -0.553288  1.651643
  N     0.740746  3.324007  1.732746
  N    -1.142018 -1.333235  0.585031
  N    -1.451247  2.469473  0.752434
  N    -1.650111 -0.702061  4.439975
  N    -1.875581  2.889138  4.576860
  S    -2.518078 -1.188422  3.055795
  S    -2.756883  2.378909  3.275823
  S     0.384799 -0.947491  0.176202
  S     0.065545  2.981143  0.250573
  S    -0.049582 -0.340284  4.240040
  S    -0.322234  3.379992  4.302834
