16  
    
  C    -5.647378 -2.762581  1.587776
  C    -5.518301  0.978952  1.373767
  C    -6.830155 -3.117789  0.821102
  C    -6.693556  0.387830  0.802227
  N    -4.573972 -2.588325  0.819328
  N    -4.459840  1.157384  0.556834
  N    -6.566243 -3.292442 -0.458474
  N    -6.591574  0.225131 -0.531026
  N    -7.460942 -3.113059  3.298398
  N    -7.283358  0.665629  3.245270
  S    -8.254507 -3.236389  1.842564
  S    -8.004711  0.184607  1.872151
  S    -5.005432 -2.859137 -0.711745
  S    -5.073355  0.731292 -0.923003
  S    -5.833533 -2.572251  3.264380
  S    -5.701736  1.082431  3.122195
