16  
    
  C    -0.530136 -0.382082  2.642567
  C    -0.297632  3.245322  2.730609
  C    -1.772420 -0.683733  2.007100
  C    -1.468860  2.689494  2.042903
  N     0.496474 -0.354178  1.849107
  N     0.689831  3.510887  1.853502
  N    -1.703569 -0.846947  0.712224
  N    -1.264886  2.273873  0.776496
  N    -2.314773 -0.656457  4.498960
  N    -2.213655  3.136072  4.461371
  S    -3.108084 -1.026885  3.050967
  S    -2.751651  2.311655  3.106168
  S    -0.103220 -0.604299  0.278785
  S     0.274107  2.755076  0.400287
  S    -0.739095 -0.099082  4.372699
  S    -0.690180  3.788657  4.373227
