16  
    
  C     2.787816  1.582583  3.480501
  C     2.856817  5.228577  3.302413
  C     1.622533  0.921718  2.945602
  C     1.663377  4.663034  2.698481
  N     3.798909  1.674324  2.589960
  N     3.837473  5.525662  2.455412
  N     1.730397  0.610639  1.663594
  N     1.833448  4.322799  1.425885
  N     1.313451  1.223648  5.513269
  N     1.341304  4.712589  5.268968
  S     0.439707  0.629457  4.211314
  S     0.485091  4.224644  3.861261
  S     3.322126  1.069555  1.216754
  S     3.301194  5.063138  0.989498
  S     2.675058  2.033155  5.124191
  S     2.783929  5.499327  4.982400
