16  
    
  C     3.264648  1.468953  3.600678
  C     3.123398  5.095389  3.469269
  C     1.935992  1.414322  2.981431
  C     1.904198  4.756410  2.803734
  N     4.318695  1.405845  2.800466
  N     4.198875  5.045643  2.696591
  N     1.982605  1.344865  1.655901
  N     2.040708  4.653380  1.469856
  N     1.626203  1.291376  5.498851
  N     1.409864  5.150324  5.285932
  S     0.652908  1.348198  4.173912
  S     0.541630  4.739880  3.928880
  S     3.591313  1.324240  1.239587
  S     3.666308  4.658123  1.221982
  S     3.255113  1.701178  5.336767
  S     3.078408  5.228965  5.190699
