16  
    
  C     0.002404 -0.657462  2.435997
  C    -0.215375  3.227520  2.628691
  C    -1.263300 -0.956919  1.850079
  C    -1.331611  2.586804  1.952843
  N     1.003797 -0.354293  1.584422
  N     0.690470  3.710426  1.780847
  N    -1.139142 -1.107329  0.513383
  N    -1.133082  2.312952  0.661091
  N    -1.713196 -0.867204  4.376505
  N    -1.916126  2.847668  4.454273
  S    -2.569179 -1.326121  2.977009
  S    -2.639884  2.267244  3.083664
  S     0.358126 -0.647623  0.092604
  S     0.401024  2.966779  0.317680
  S    -0.104418 -0.492651  4.154099
  S    -0.380906  3.494098  4.340301
