16  
    
  C    -5.418113 -2.744913  1.543143
  C    -5.523980  1.055596  1.351151
  C    -6.668080 -3.005669  0.865444
  C    -6.663060  0.419630  0.641276
  N    -4.373347 -2.715105  0.698926
  N    -4.487867  1.303145  0.560484
  N    -6.498397 -3.190020 -0.435643
  N    -6.577502  0.361107 -0.727609
  N    -7.193208 -3.246485  3.387901
  N    -7.231017  0.497141  3.172458
  S    -8.008062 -3.500479  1.936628
  S    -7.994365  0.090799  1.785906
  S    -4.903427 -3.031603 -0.827081
  S    -4.981969  0.896039 -1.008116
  S    -5.645606 -2.555764  3.325354
  S    -5.713779  1.206377  3.110057
