16  
    
  C    -2.881619 -1.680731  2.022078
  C    -2.442470  2.244708  1.977140
  C    -4.058943 -2.187885  1.320559
  C    -3.757126  1.960216  1.456091
  N    -1.943610 -1.272307  1.162979
  N    -1.424866  2.020897  1.123089
  N    -4.009604 -2.178551 -0.023229
  N    -3.726195  1.597312  0.178755
  N    -4.663267 -2.076345  3.869132
  N    -4.187917  2.228097  3.962525
  S    -5.301637 -2.590168  2.437313
  S    -5.059047  2.091894  2.529167
  S    -2.512280 -1.609955 -0.384512
  S    -2.145942  1.603180 -0.304400
  S    -3.057832 -1.594156  3.770311
  S    -2.513938  2.316559  3.707719
