16  
    
  C    -2.403113 -1.088172  2.185267
  C    -2.720109  2.648764  2.353866
  C    -3.445249 -1.877938  1.499885
  C    -3.878408  2.037696  1.731584
  N    -1.405264 -0.778636  1.350631
  N    -1.753137  3.002989  1.509779
  N    -3.385287 -1.862189  0.166127
  N    -3.700970  1.757854  0.423682
  N    -4.101584 -1.613144  3.954193
  N    -4.388467  2.131403  4.215034
  S    -4.754612 -2.243955  2.576646
  S    -5.061162  1.379254  2.922295
  S    -1.868976 -1.215392 -0.167989
  S    -2.254998  2.426393 -0.034033
  S    -2.562120 -0.934086  3.880890
  S    -2.889430  2.797452  4.035011
