16  
    
  C    -2.995862 -1.851264  2.189026
  C    -3.327676  1.719651  2.006949
  C    -4.307214 -1.785132  1.568576
  C    -4.594086  1.265249  1.503121
  N    -1.906574 -1.847008  1.409205
  N    -2.356592  1.859964  1.105442
  N    -4.234207 -1.977054  0.253441
  N    -4.674890  1.283517  0.180601
  N    -4.713997 -1.957011  4.143778
  N    -4.933711  1.445003  4.031811
  S    -5.577413 -2.008000  2.701731
  S    -5.829724  1.100236  2.717414
  S    -2.616843 -1.945044 -0.136207
  S    -3.137060  1.641100 -0.383240
  S    -3.107066 -1.659289  3.922231
  S    -3.358533  1.831389  3.790466
