16  
    
  C    -4.746283 -2.712609  1.510383
  C    -4.656987  0.781539  1.416570
  C    -6.012502 -3.057460  0.943515
  C    -5.907158  0.642972  0.747782
  N    -3.732253 -2.734375  0.658562
  N    -3.588038  1.020055  0.632563
  N    -6.010385 -3.123948 -0.403968
  N    -5.744548  0.735173 -0.582813
  N    -6.398876 -2.576680  3.502280
  N    -6.518637  0.829573  3.224819
  S    -7.275293 -2.990499  2.142122
  S    -7.362416  0.671366  1.776032
  S    -4.400403 -2.924242 -0.874818
  S    -4.211002  0.982722 -0.886481
  S    -4.719200 -2.475320  3.271435
  S    -4.849703  1.075442  3.089271
