16  
    
  C     1.071116  0.093676  2.911908
  C     0.928105  3.688636  2.997887
  C    -0.177514 -0.451062  2.479956
  C    -0.371079  3.393044  2.470623
  N     1.996552  0.208984  1.984574
  N     1.909549  3.859723  2.155027
  N    -0.217637 -0.654751  1.150751
  N    -0.412891  3.209427  1.171498
  N    -0.421274 -0.095199  5.081801
  N    -0.729135  3.598374  5.008386
  S    -1.321037 -0.523216  3.739854
  S    -1.676942  3.313553  3.646455
  S     1.259680 -0.243727  0.546919
  S     1.138025  3.474486  0.646317
  S     1.149847  0.373766  4.643767
  S     0.830104  4.050760  4.705889
