16  
    
  C    -0.237785 -0.150146  2.541516
  C    -0.291983  3.225376  2.544626
  C    -1.319199 -0.776606  1.837733
  C    -1.593466  2.973142  1.979081
  N     0.777931  0.069956  1.736461
  N     0.628669  3.551015  1.606808
  N    -1.046330 -1.082662  0.569761
  N    -1.592760  2.632579  0.673028
  N    -2.100758 -0.649358  4.270063
  N    -2.029104  3.176383  4.500671
  S    -2.696448 -1.038696  2.798459
  S    -2.923698  2.918992  3.105010
  S     0.449585 -0.599376  0.245030
  S    -0.089457  3.048635  0.143152
  S    -0.530989 -0.096257  4.257383
  S    -0.398110  3.420606  4.257496
