16  
    
  C     2.579730  1.073125  3.171789
  C     2.477897  4.906667  3.502400
  C     1.366454  0.732629  2.500485
  C     1.333801  4.412604  2.790047
  N     3.575968  1.318142  2.328959
  N     3.590969  4.971703  2.758614
  N     1.482758  0.635804  1.167426
  N     1.472376  4.377225  1.469657
  N     0.760630  0.715645  4.928833
  N     0.579095  4.503664  5.295327
  S     0.072346  0.373019  3.516370
  S     0.029631  3.919097  3.739144
  S     3.055263  1.010619  0.842442
  S     3.050157  4.698636  1.227406
  S     2.372782  1.001454  4.918435
  S     2.173517  5.015810  5.214037
