16  
    
  C     0.673642  0.300842  3.091217
  C     0.673773  3.903567  2.882169
  C    -0.615306  0.000283  2.464978
  C    -0.588691  3.504896  2.226209
  N     1.690882  0.231688  2.213594
  N     1.729127  3.898146  2.074810
  N    -0.529646 -0.069252  1.147995
  N    -0.437765  3.209431  0.954399
  N    -1.120705  0.236509  5.010979
  N    -1.002412  3.640018  4.843034
  S    -1.934728  0.083874  3.596439
  S    -1.792415  3.208358  3.405898
  S     1.027203  0.026626  0.679199
  S     1.100876  3.632601  0.540470
  S     0.506059  0.482203  4.768606
  S     0.576456  4.124688  4.631371
