16  
    
  C     1.573526  0.689107  2.804498
  C     0.870830  4.035150  2.440748
  C     0.330771  0.261937  2.194196
  C    -0.347019  3.460648  1.893698
  N     2.626294  0.834008  1.980431
  N     1.922366  4.256572  1.658716
  N     0.371266  0.232301  0.834895
  N    -0.189500  3.088719  0.623422
  N    -0.175233  0.471432  4.764937
  N    -0.900941  3.766673  4.384952
  S    -0.862023 -0.030087  3.407624
  S    -1.598705  3.135098  3.024631
  S     1.953915  0.590818  0.425026
  S     1.335788  3.656202  0.191099
  S     1.407734  0.914280  4.574568
  S     0.741155  4.172005  4.136358
