16  
    
  C    -1.384104 -0.444954  1.909623
  C    -1.163059  3.303802  2.177475
  C    -2.560987 -1.196136  1.531054
  C    -2.460597  2.815943  1.602498
  N    -0.476682 -0.299637  0.932197
  N    -0.384370  3.742833  1.210392
  N    -2.555860 -1.501033  0.254801
  N    -2.438739  2.538314  0.291801
  N    -2.831595 -0.661295  4.054899
  N    -2.687400  2.923145  4.185021
  S    -3.831439 -1.190645  2.772863
  S    -3.631402  2.505865  2.890170
  S    -1.192569 -0.940703 -0.390321
  S    -0.933328  3.086401 -0.234894
  S    -1.294081 -0.146052  3.577211
  S    -1.112755  3.360291  3.891754
