16  
    
  C    -2.106016 -1.068970  2.022176
  C    -2.673016  2.566093  2.120318
  C    -3.192936 -1.863192  1.438346
  C    -3.867938  2.054182  1.540161
  N    -1.182554 -0.650264  1.151388
  N    -1.660387  2.828719  1.312554
  N    -3.093858 -1.990425  0.117403
  N    -3.701073  1.691930  0.285518
  N    -3.571329 -1.868451  3.935140
  N    -4.373837  2.439583  4.064225
  S    -4.440699 -2.265664  2.597426
  S    -5.119198  1.838043  2.726953
  S    -1.667993 -1.229744 -0.330127
  S    -2.186972  2.237363 -0.206141
  S    -2.211577 -0.915048  3.708503
  S    -2.766059  2.853218  3.849747
