16  
    
  C    -5.411289 -2.812999  1.481927
  C    -5.512326  1.071680  1.322078
  C    -6.601144 -3.298158  0.835155
  C    -6.695452  0.617261  0.677183
  N    -4.335066 -2.668308  0.728301
  N    -4.505936  1.372966  0.509788
  N    -6.523509 -3.327763 -0.495418
  N    -6.455795  0.433797 -0.629394
  N    -7.128043 -3.001511  3.374875
  N    -7.325801  0.639557  3.171435
  S    -7.840425 -3.586952  1.982861
  S    -7.919236  0.029780  1.702013
  S    -4.925552 -2.932999 -0.820301
  S    -4.971957  0.963166 -0.992495
  S    -5.484975 -2.655707  3.171790
  S    -5.740341  1.120971  2.995214
