16  
    
  C     2.602447  1.105222  3.373729
  C     2.938130  5.232079  3.657950
  C     1.445355  0.690166  2.668732
  C     1.598788  5.155902  3.095458
  N     3.658477  1.423515  2.608042
  N     3.916364  4.882042  2.826004
  N     1.647523  0.681462  1.350657
  N     1.587973  4.757860  1.805424
  N     0.680496  0.825742  5.132158
  N     1.339192  5.505339  5.682436
  S     0.114587  0.226501  3.703651
  S     0.391376  5.380673  4.350499
  S     3.214717  1.188090  1.109017
  S     3.175573  4.684598  1.351624
  S     2.292538  1.130408  5.104147
  S     2.960705  5.448747  5.416217
