16  
    
  C    -1.815598 -0.922106  2.375622
  C    -1.918113  2.546527  2.644919
  C    -3.065307 -1.407507  1.832528
  C    -3.088693  2.022288  1.912838
  N    -0.811679 -0.827765  1.459239
  N    -0.874687  2.686023  1.853591
  N    -3.077152 -1.632708  0.516195
  N    -2.904238  1.790650  0.614915
  N    -3.489879 -1.195716  4.275334
  N    -3.749347  2.099299  4.419248
  S    -4.439728 -1.444979  2.933630
  S    -4.427978  1.725730  2.948023
  S    -1.526346 -1.345579  0.015842
  S    -1.311662  2.297690  0.309719
  S    -1.872403 -0.808908  4.072060
  S    -2.132596  2.430882  4.356947
