16  
    
  C    -4.673095 -2.814745  1.489473
  C    -4.678486  1.029691  1.433595
  C    -5.982251 -3.045790  0.942206
  C    -5.933743  0.914768  0.691506
  N    -3.680150 -2.674765  0.638065
  N    -3.618395  1.105678  0.664004
  N    -6.016117 -3.087062 -0.371192
  N    -5.812030  0.711012 -0.645037
  N    -6.389134 -2.706752  3.410028
  N    -6.461959  0.753106  3.263205
  S    -7.302413 -2.949588  2.072861
  S    -7.223891  0.694585  1.877923
  S    -4.430523 -2.787759 -0.833213
  S    -4.136900  0.933417 -0.900555
  S    -4.773097 -2.477048  3.176578
  S    -4.840532  0.945539  3.228067
