16  
    
  C     2.558948  1.115877  3.230993
  C     2.554946  5.049834  3.588916
  C     1.395075  0.688434  2.473977
  C     1.457579  4.241341  3.093303
  N     3.684148  1.175676  2.526494
  N     3.497168  5.249591  2.701445
  N     1.568090  0.500139  1.175576
  N     1.476162  4.044160  1.787725
  N     0.697826  1.128202  4.956646
  N     0.913505  4.813653  5.536786
  S     0.084106  0.382088  3.586578
  S     0.130536  4.234780  4.224597
  S     3.188101  0.796570  0.911105
  S     2.955814  4.640934  1.238687
  S     2.324824  1.328666  4.933007
  S     2.498554  5.335165  5.271339
