16  
    
  C    -2.566138 -1.928836  1.967929
  C    -3.041675  2.131701  1.785602
  C    -3.860060 -2.025165  1.294216
  C    -4.153373  1.533437  1.047383
  N    -1.504514 -1.936643  1.152666
  N    -2.068286  2.505102  1.007433
  N    -3.743426 -2.313707 -0.006710
  N    -3.988964  1.488197 -0.260790
  N    -4.317168 -1.842043  3.819130
  N    -4.819669  1.630093  3.460611
  S    -5.265494 -1.890814  2.414179
  S    -5.510535  1.141002  2.039345
  S    -2.135355 -2.180298 -0.412457
  S    -2.472971  2.202464 -0.541402
  S    -2.707447 -1.696100  3.637568
  S    -3.316328  2.318566  3.460089
