16  
    
  C    -5.910203 -2.952024  1.329989
  C    -6.002593  0.836119  1.340486
  C    -7.059090 -3.393276  0.586989
  C    -7.213211  0.651930  0.653196
  N    -4.768059 -2.981490  0.649007
  N    -4.950058  0.985376  0.547018
  N    -6.870096 -3.430724 -0.736456
  N    -7.059466  0.571414 -0.683251
  N    -7.737521 -3.361954  3.089664
  N    -7.814793  0.274561  3.153588
  S    -8.527190 -3.499934  1.636010
  S    -8.599450  0.287417  1.738471
  S    -5.193119 -3.259423 -0.976357
  S    -5.439198  0.803496 -1.029509
  S    -6.103391 -2.884358  3.044345
  S    -6.197193  0.642957  3.097670
