16  
    
  C    -0.339857 -0.352653  2.580008
  C    -0.374962  3.291082  2.569312
  C    -1.491312 -0.742142  1.839637
  C    -1.611220  2.739501  1.951618
  N     0.744469 -0.049916  1.824714
  N     0.616779  3.345666  1.716746
  N    -1.217319 -1.033035  0.551010
  N    -1.540789  2.594333  0.631936
  N    -2.222222 -0.574318  4.333854
  N    -2.067101  3.220214  4.441088
  S    -2.944899 -1.004135  2.860131
  S    -2.887958  2.704615  3.145853
  S     0.323901 -0.507263  0.296162
  S     0.056020  2.970582  0.212480
  S    -0.604476 -0.074673  4.265307
  S    -0.466595  3.586092  4.280183
