16  
    
  C    -5.337699 -2.123797  1.618068
  C    -5.361138  1.140958  1.417490
  C    -6.600450 -2.530173  1.007690
  C    -6.591500  0.800722  0.760261
  N    -4.342371 -1.940455  0.718720
  N    -4.326605  1.225491  0.605929
  N    -6.437959 -2.834945 -0.259891
  N    -6.510900  0.514741 -0.554066
  N    -7.040016 -2.576398  3.495913
  N    -7.034538  1.004001  3.295070
  S    -7.935971 -2.848224  2.107550
  S    -7.896253  0.613314  1.918443
  S    -4.898843 -2.583871 -0.699636
  S    -4.863212  0.794698 -0.923216
  S    -5.481404 -2.028918  3.367569
  S    -5.461618  1.374229  3.176361
