16  
    
  C    -3.988510 -2.121905  1.687600
  C    -4.000997  1.559553  1.701107
  C    -5.300413 -2.324132  1.138083
  C    -5.301973  1.260270  1.028891
  N    -2.950137 -2.038740  0.867705
  N    -2.965701  1.468727  0.913558
  N    -5.230666 -2.449848 -0.182835
  N    -5.165779  1.119241 -0.287568
  N    -5.742840 -1.797683  3.582707
  N    -5.743579  1.595212  3.476230
  S    -6.660350 -2.284127  2.263355
  S    -6.594819  1.344699  2.092683
  S    -3.668042 -2.257207 -0.651125
  S    -3.591642  1.160588 -0.613495
  S    -4.079206 -1.737921  3.437488
  S    -4.063438  1.665029  3.413838
