16  
    
  C    -2.096890 -1.018294  2.015456
  C    -2.665773  2.562806  2.121995
  C    -3.154169 -1.857897  1.436140
  C    -3.861875  2.090260  1.526619
  N    -1.164469 -0.685140  1.146599
  N    -1.668820  2.830621  1.301322
  N    -3.093783 -1.978431  0.127851
  N    -3.714073  1.700332  0.259134
  N    -3.546887 -1.873958  3.936904
  N    -4.357241  2.451474  4.045251
  S    -4.434599 -2.250706  2.596006
  S    -5.113035  1.847458  2.719355
  S    -1.662461 -1.237331 -0.337854
  S    -2.180802  2.219832 -0.212505
  S    -2.218397 -0.918266  3.712017
  S    -2.761010  2.854777  3.848734
