16  
    
  C    -0.927052 -0.767937  2.273713
  C    -0.698082  3.046743  2.434336
  C    -1.951151 -1.530144  1.703403
  C    -1.935908  2.555748  1.861132
  N     0.154841 -0.631857  1.511053
  N     0.257624  3.251826  1.539177
  N    -1.753192 -1.897035  0.433665
  N    -1.908778  2.472727  0.555038
  N    -2.742669 -0.954576  4.097729
  N    -2.409808  2.727618  4.328429
  S    -3.435642 -1.478086  2.623913
  S    -3.270444  2.524027  2.984686
  S    -0.269473 -1.260257  0.040849
  S    -0.363557  2.768424  0.073746
  S    -1.217600 -0.318036  3.969175
  S    -0.862614  3.231368  4.202803
