16  
    
  C     1.989355  1.022832  3.022536
  C     2.229693  4.364156  3.086821
  C     0.789822  0.479848  2.390598
  C     1.045298  4.128305  2.288917
  N     2.991074  1.211362  2.131016
  N     3.355314  4.322114  2.378532
  N     0.955707  0.145829  1.095379
  N     1.330132  3.734227  1.048571
  N     0.200036  1.080096  4.780849
  N     0.211450  4.475944  4.705009
  S    -0.580892  0.673427  3.456189
  S    -0.367135  3.808059  3.198060
  S     2.449280  0.627692  0.711113
  S     2.939293  4.005458  0.813568
  S     1.859920  1.313403  4.738387
  S     1.902151  4.700428  4.761955
