16  
    
  C     1.592522  0.634711  2.837793
  C     0.848259  3.909375  2.499369
  C     0.342553  0.213686  2.245649
  C    -0.316877  3.317955  1.874847
  N     2.574684  0.833920  1.977312
  N     1.843232  4.118813  1.675215
  N     0.450413  0.070386  0.906388
  N    -0.244831  3.248546  0.526596
  N    -0.145703  0.619268  4.721190
  N    -0.782884  3.661918  4.393829
  S    -0.959424  0.018673  3.360754
  S    -1.615424  3.179031  3.006520
  S     2.020602  0.446856  0.481862
  S     1.319008  3.648660  0.151005
  S     1.498236  1.052921  4.483997
  S     0.757202  4.192803  4.258641
