16  
    
  C     2.821694  1.469221  3.631444
  C     2.900103  5.358746  3.524762
  C     1.615104  0.855371  3.074981
  C     1.794505  4.772287  2.835035
  N     3.770814  1.659558  2.726604
  N     3.963301  5.468722  2.745425
  N     1.666357  0.549173  1.766879
  N     1.882241  4.732037  1.508961
  N     1.014455  1.505910  5.504154
  N     1.039330  5.085164  5.224729
  S     0.345079  0.694293  4.231285
  S     0.433520  4.454485  3.820353
  S     3.091971  1.075363  1.210157
  S     3.357547  5.270143  1.180740
  S     2.686559  1.721051  5.410205
  S     2.731754  5.342177  5.259368
