16  
    
  C     2.594282  1.104670  3.339567
  C     2.613832  5.192681  3.639710
  C     1.429769  0.591883  2.597739
  C     1.443916  4.521850  3.150348
  N     3.690014  1.359213  2.628375
  N     3.646981  5.109586  2.786210
  N     1.707244  0.352332  1.322320
  N     1.511407  4.230170  1.848722
  N     0.654492  0.991462  4.964701
  N     0.988117  4.955371  5.672772
  S    -0.099059  0.503615  3.559778
  S     0.235881  4.175872  4.381748
  S     3.238966  0.848261  1.014844
  S     3.073602  4.575555  1.321390
  S     2.246826  1.384547  4.994059
  S     2.606794  5.531150  5.315041
