16  
    
  C     0.622979  0.274236  3.113347
  C     0.697459  4.012404  2.924496
  C    -0.619803  0.116054  2.462152
  C    -0.456918  3.348949  2.406749
  N     1.651057  0.210049  2.307544
  N     1.788942  4.045231  2.142199
  N    -0.567378  0.045934  1.127870
  N    -0.399196  3.282511  1.062565
  N    -1.090162  0.198497  4.932882
  N    -1.076342  3.811815  4.821068
  S    -1.942867  0.231656  3.526289
  S    -1.840468  3.165508  3.442117
  S     1.025132  0.097460  0.774382
  S     1.196213  3.379663  0.661390
  S     0.567230  0.516210  4.854203
  S     0.469217  4.356447  4.617375
