16  
    
  C    -4.116215 -2.073710  1.785995
  C    -4.142915  1.274442  1.743232
  C    -5.445439 -2.314121  1.270150
  C    -5.417768  1.256869  1.006348
  N    -3.159450 -2.243088  0.836957
  N    -3.068011  1.240999  0.931195
  N    -5.515398 -2.375854 -0.063093
  N    -5.238205  1.128788 -0.305604
  N    -5.667897 -2.018177  3.833363
  N    -5.952851  1.524396  3.474636
  S    -6.705154 -2.288190  2.541106
  S    -6.750575  1.299424  2.026782
  S    -3.913279 -2.389170 -0.618205
  S    -3.587481  1.150311 -0.581138
  S    -4.023681 -1.925140  3.529801
  S    -4.328712  1.664911  3.445611
