16  
    
  C    -4.220044 -1.953396  1.877917
  C    -4.145476  1.650933  1.872080
  C    -5.420107 -2.381150  1.243333
  C    -5.340809  0.932522  1.413698
  N    -3.242334 -1.785683  1.011126
  N    -3.187482  1.704245  0.912887
  N    -5.317004 -2.852747 -0.038871
  N    -5.337317  0.557823  0.120324
  N    -5.994968 -2.164517  3.793843
  N    -5.930130  1.788363  3.802529
  S    -6.799213 -2.286343  2.330483
  S    -6.651280  0.955036  2.558359
  S    -3.742654 -2.397913 -0.444052
  S    -3.801658  1.068109 -0.457547
  S    -4.515370 -1.482073  3.497614
  S    -4.263976  1.935216  3.590108
