16  
    
  C     0.642872 -0.129074  2.774892
  C     0.330356  3.529395  2.919824
  C    -0.596649 -0.564163  2.164030
  C    -0.903023  3.203280  2.188270
  N     1.663115 -0.005773  1.887280
  N     1.340986  3.948629  2.148610
  N    -0.585577 -0.485740  0.814258
  N    -0.774667  3.386431  0.880801
  N    -1.045073 -0.461515  4.784707
  N    -1.419129  3.118602  4.730420
  S    -1.944108 -0.652319  3.408092
  S    -2.226581  2.836035  3.262419
  S     0.970021 -0.126460  0.365498
  S     0.830199  3.727154  0.580555
  S     0.525474 -0.042671  4.531537
  S     0.160881  3.431314  4.615966
