16  
    
  C    -5.180489 -2.465584  1.762221
  C    -5.324509  1.137824  1.472121
  C    -6.472849 -2.847730  1.185417
  C    -6.646890  0.967222  0.866433
  N    -4.171608 -2.371443  0.912976
  N    -4.258556  1.177994  0.684546
  N    -6.393590 -2.937665 -0.134280
  N    -6.607056  0.626805 -0.417737
  N    -6.991193 -2.305622  3.645377
  N    -7.119593  1.105216  3.379590
  S    -7.865968 -2.736707  2.309121
  S    -7.990950  0.881418  1.985865
  S    -4.797006 -2.667638 -0.594749
  S    -4.972193  0.812553 -0.847198
  S    -5.366403 -1.931025  3.430981
  S    -5.458425  1.348015  3.237623
