16  
    
  C     2.540151  1.121971  3.261454
  C     3.011165  5.329819  3.843700
  C     1.369169  0.522649  2.623706
  C     1.711652  5.100070  3.284315
  N     3.589075  1.313857  2.475378
  N     3.980267  5.127969  2.954591
  N     1.504759  0.299721  1.331351
  N     1.697875  4.619551  2.047756
  N     0.622510  0.712690  5.061608
  N     1.256849  5.636655  5.797351
  S    -0.021377  0.335585  3.600822
  S     0.397389  5.349194  4.415126
  S     3.032312  0.775351  0.931173
  S     3.282673  4.751706  1.493342
  S     2.191913  1.341598  4.965990
  S     2.894288  5.827311  5.581797
