16  
    
  C    -2.515277 -1.877764  1.948878
  C    -3.094991  2.135285  1.739512
  C    -3.772944 -2.170209  1.314533
  C    -4.252436  1.652314  0.980656
  N    -1.516514 -1.983970  1.084479
  N    -2.048785  2.497151  0.952159
  N    -3.812324 -2.223241 -0.029095
  N    -4.011337  1.454302 -0.325424
  N    -4.263111 -1.708439  3.837648
  N    -5.002232  1.600432  3.482646
  S    -5.081187 -1.816854  2.401559
  S    -5.470780  0.965173  2.060299
  S    -2.241686 -2.182095 -0.434001
  S    -2.486791  1.976978 -0.622011
  S    -2.642680 -1.577877  3.686537
  S    -3.456489  2.219816  3.437028
