16  
    
  C     2.822106  1.604788  3.461598
  C     2.878239  5.260381  3.246435
  C     1.660069  0.940831  2.875282
  C     1.739472  4.585763  2.721252
  N     3.874484  1.735296  2.637209
  N     3.817032  5.535936  2.378745
  N     1.803571  0.596788  1.600403
  N     1.829268  4.310901  1.446390
  N     1.231184  1.270532  5.454949
  N     1.382344  4.626312  5.178322
  S     0.470102  0.631330  4.149993
  S     0.497377  4.184221  3.854260
  S     3.298850  1.090567  1.109560
  S     3.255338  4.941809  0.918164
  S     2.712732  2.026285  5.187537
  S     2.788355  5.523478  4.985147
