16  
    
  C     1.405109  0.908992  3.287804
  C     1.249336  4.328100  3.101849
  C     0.131587  0.408411  2.820738
  C    -0.035933  4.096479  2.420009
  N     2.410632  0.925924  2.370365
  N     2.264795  4.619306  2.264974
  N     0.181137 -0.057400  1.572393
  N     0.028079  3.947019  1.103795
  N    -0.262085  0.952654  5.307507
  N    -0.584602  4.169682  4.885835
  S    -1.195445  0.415877  3.977051
  S    -1.359487  3.670262  3.526232
  S     1.690216  0.223038  0.963252
  S     1.560401  4.431703  0.724109
  S     1.347507  1.184907  5.044377
  S     1.046936  4.506640  4.875123
