16  
    
  C     0.866184  0.066682  2.849736
  C     0.454428  3.826419  3.006831
  C    -0.419036 -0.301009  2.253846
  C    -0.878208  3.564225  2.359049
  N     1.848159  0.222894  1.975614
  N     1.425638  3.804574  2.108713
  N    -0.388404 -0.469601  0.929199
  N    -0.870201  3.679386  1.011315
  N    -0.767816 -0.146958  4.759866
  N    -1.128653  3.119065  4.891502
  S    -1.734591 -0.298988  3.367167
  S    -2.085766  3.259852  3.558631
  S     1.180685 -0.079092  0.487167
  S     0.760271  3.953072  0.620825
  S     0.866037  0.120599  4.573288
  S     0.494756  3.312641  4.660614
