16  
    
  C     3.068832  1.438433  3.314769
  C     3.129406  5.126008  3.369830
  C     1.793568  1.145970  2.689574
  C     1.902117  4.646534  2.698440
  N     4.074031  1.587844  2.457091
  N     4.214233  5.082657  2.582093
  N     1.904806  0.985889  1.364068
  N     2.026029  4.542733  1.378959
  N     1.277895  1.635253  5.123240
  N     1.158760  5.037422  5.040013
  S     0.484912  1.282497  3.729200
  S     0.459104  4.664071  3.586195
  S     3.501436  1.414142  0.987648
  S     3.631610  4.872405  1.024239
  S     2.933592  1.690878  5.088640
  S     2.813234  5.259317  5.123197
