16  
    
  C     2.013198  1.123244  3.098727
  C     2.203651  4.310621  3.012318
  C     0.768980  0.708165  2.463743
  C     1.021268  3.967674  2.245270
  N     3.085905  1.210101  2.277530
  N     3.231845  4.572131  2.208314
  N     0.924467  0.535799  1.135249
  N     1.284205  3.554344  0.967622
  N     0.324890  0.910557  4.981865
  N     0.275160  4.233062  4.807241
  S    -0.532966  0.460030  3.660334
  S    -0.414645  3.900748  3.313699
  S     2.494934  0.796341  0.796032
  S     2.832434  4.049204  0.705487
  S     1.877533  1.425589  4.801731
  S     1.994200  4.561672  4.745955
