16  
    
  C     2.655214  1.129749  3.525338
  C     2.967325  5.028589  3.681443
  C     1.526316  0.685449  2.707511
  C     1.644388  4.952311  3.117912
  N     3.695858  1.468875  2.794783
  N     3.924297  4.854868  2.760269
  N     1.648047  0.696034  1.384305
  N     1.578201  4.881158  1.782625
  N     0.734076  0.843881  5.114120
  N     1.259122  5.556509  5.669564
  S     0.148374  0.331638  3.636746
  S     0.393168  5.324962  4.248790
  S     3.170422  1.291996  1.134329
  S     3.174864  4.739955  1.273317
  S     2.383908  1.080330  5.252632
  S     2.922913  5.391573  5.399880
