16  
    
  C    -3.195550 -2.111368  1.938757
  C    -3.749937  1.876908  2.008069
  C    -4.387009 -2.594526  1.293969
  C    -4.724226  1.064155  1.340925
  N    -2.184675 -1.963685  1.101647
  N    -2.730413  2.176412  1.231470
  N    -4.271617 -2.832562 -0.027398
  N    -4.367548  0.761636  0.110720
  N    -5.076817 -2.206619  3.699531
  N    -5.610964  1.502821  3.653638
  S    -5.737175 -2.878251  2.359708
  S    -6.075980  0.614966  2.246604
  S    -2.716087 -2.466252 -0.414878
  S    -2.953633  1.557924 -0.228879
  S    -3.574891 -1.543996  3.495942
  S    -4.076758  2.201351  3.690640
