16  
    
  C    -0.262155 -0.593880  2.626396
  C    -0.366852  3.226150  2.656213
  C    -1.492676 -1.116073  2.119880
  C    -1.599930  2.741498  2.048560
  N     0.795581 -0.759218  1.782157
  N     0.690063  3.358104  1.864620
  N    -1.447267 -1.337712  0.789134
  N    -1.394184  2.419503  0.775227
  N    -1.903423 -0.641179  4.606508
  N    -2.056549  2.887283  4.619776
  S    -2.749991 -1.249399  3.355629
  S    -2.862017  2.453316  3.181974
  S     0.125207 -1.250780  0.384042
  S     0.130053  2.962215  0.344615
  S    -0.307018 -0.313318  4.308548
  S    -0.536895  3.521557  4.357411
