16  
    
  C     2.502377  1.012935  3.289190
  C     2.443295  4.769104  3.424795
  C     1.264815  0.790934  2.576625
  C     1.318645  4.165515  2.710987
  N     3.532803  1.302819  2.512346
  N     3.526062  5.025262  2.698528
  N     1.424007  0.956167  1.255909
  N     1.511990  4.141747  1.386698
  N     0.658365  0.673489  5.025234
  N     0.550684  4.325466  5.245673
  S    -0.104955  0.291520  3.599128
  S    -0.160121  3.937670  3.720817
  S     3.053190  1.290999  0.972696
  S     3.024965  4.809199  1.133772
  S     2.259719  1.008252  4.981789
  S     2.182873  4.869759  5.149340
