16  
    
  C     1.450168  0.933944  3.412593
  C     1.358542  4.559551  3.275955
  C     0.205439  0.583877  2.835805
  C     0.049879  4.206557  2.794946
  N     2.488024  0.839823  2.561807
  N     2.204221  4.882499  2.285066
  N     0.261917  0.244722  1.544576
  N    -0.045990  3.944063  1.472930
  N    -0.301417  0.903141  5.363559
  N    -0.129560  4.355596  5.395957
  S    -1.040940  0.436094  3.993116
  S    -1.093360  4.091318  4.134935
  S     1.851785  0.338019  1.117779
  S     1.436056  4.291697  0.931746
  S     1.362402  1.269153  5.104215
  S     1.443503  4.653919  5.045573
