16  
    
  C    -4.899912 -2.597887  1.941773
  C    -5.384264  0.966174  1.765158
  C    -6.111109 -3.032011  1.331543
  C    -6.597129  0.746351  1.066739
  N    -3.834762 -2.547067  1.148854
  N    -4.355774  1.061694  0.921311
  N    -6.021560 -3.204990  0.002301
  N    -6.459826  0.519246 -0.267473
  N    -6.780233 -2.641723  3.794260
  N    -7.128493  1.012868  3.567420
  S    -7.557447 -3.001155  2.355540
  S    -7.950015  0.631084  2.161259
  S    -4.413618 -3.005913 -0.405757
  S    -4.910492  0.821725 -0.589118
  S    -5.207040 -2.251720  3.646754
  S    -5.526909  1.340954  3.461650
