16  
    
  C    -1.000725 -0.593108  2.354936
  C    -1.177480  3.034334  2.388117
  C    -2.195356 -0.996231  1.711429
  C    -2.439889  2.822298  1.698088
  N    -0.031189 -0.205716  1.562203
  N    -0.166024  3.058754  1.514838
  N    -2.064919 -1.123318  0.396535
  N    -2.391164  2.620841  0.364641
  N    -2.869755 -0.929064  4.151895
  N    -2.951282  3.199670  4.277841
  S    -3.589212 -1.440361  2.778080
  S    -3.787607  2.940939  2.822529
  S    -0.604279 -0.509233  0.047608
  S    -0.762424  2.687296  0.015964
  S    -1.319220 -0.350286  4.061274
  S    -1.270848  3.250523  4.082029
