16  
    
  C    -0.078859 -0.500968  2.610922
  C     0.061761  3.492387  2.332304
  C    -1.432471 -0.607308  2.045802
  C    -1.178967  3.237597  1.749298
  N     0.861110 -0.275353  1.671967
  N     1.057396  3.690709  1.493332
  N    -1.438226 -0.680207  0.719153
  N    -1.154924  3.186515  0.439541
  N    -1.799618 -0.380988  4.520407
  N    -1.693387  3.500094  4.295138
  S    -2.727954 -0.681466  3.190728
  S    -2.499407  3.049067  2.933515
  S     0.078979 -0.353549  0.244252
  S     0.435498  3.395218 -0.001757
  S    -0.165003 -0.107521  4.271895
  S    -0.031835  3.847475  4.029247
