16  
    
  C    -4.330521 -2.509211  1.483819
  C    -4.457306  1.643825  1.943797
  C    -5.515036 -2.869592  0.778648
  C    -5.630787  0.975778  1.350489
  N    -3.263414 -2.168560  0.758195
  N    -3.451811  1.748054  1.108661
  N    -5.309277 -2.981982 -0.514450
  N    -5.503560  0.839842  0.014388
  N    -6.266975 -2.842017  3.314509
  N    -5.989007  1.073869  3.926009
  S    -6.884887 -3.299594  1.816857
  S    -6.806374  0.631238  2.514887
  S    -3.765568 -2.451218 -0.843033
  S    -4.006176  1.260605 -0.373172
  S    -4.678064 -2.326743  3.207807
  S    -4.384153  1.772233  3.697041
