16  
    
  C    -1.650289 -1.168987  2.374654
  C    -1.827287  2.351664  2.409633
  C    -2.973581 -1.338134  1.832658
  C    -3.009699  1.910929  1.765747
  N    -0.672140 -1.122140  1.440442
  N    -0.764512  2.573784  1.661229
  N    -2.986538 -1.440336  0.501773
  N    -2.843258  1.725635  0.472776
  N    -3.308336 -1.058216  4.332340
  N    -3.671552  2.142657  4.252278
  S    -4.265018 -1.345954  3.002447
  S    -4.355569  1.674563  2.820284
  S    -1.437598 -1.301595 -0.021522
  S    -1.322290  2.239924  0.088846
  S    -1.689325 -0.731012  4.009027
  S    -2.083502  2.597122  4.155197
