16  
    
  C    -2.063034 -1.035335  2.292422
  C    -1.948958  2.250813  2.025920
  C    -3.368940 -1.242652  1.689843
  C    -3.169887  1.857833  1.363571
  N    -1.018332 -1.020917  1.451292
  N    -0.886999  2.347946  1.232073
  N    -3.304028 -1.396580  0.364197
  N    -3.090413  1.872232  0.021531
  N    -3.846279 -1.033404  4.152362
  N    -3.780264  2.389909  3.803176
  S    -4.678236 -1.224724  2.702726
  S    -4.506814  1.766744  2.443631
  S    -1.729865 -1.214916 -0.072893
  S    -1.491413  2.128327 -0.354390
  S    -2.228914 -0.627011  3.991687
  S    -2.135446  2.450165  3.776570
