16  
    
  C     0.463745 -0.001066  2.789100
  C     0.205474  3.778713  2.863955
  C    -0.752222 -0.498542  2.141793
  C    -0.904910  3.098152  2.161759
  N     1.420814  0.284823  1.943566
  N     1.264565  3.907259  2.081812
  N    -0.668080 -0.768584  0.852642
  N    -0.728352  2.979964  0.838130
  N    -1.205856 -0.494102  4.650448
  N    -1.532113  3.032764  4.603287
  S    -2.065359 -0.708330  3.224747
  S    -2.250524  2.764341  3.109937
  S     0.850211 -0.227121  0.489796
  S     0.794810  3.622821  0.495735
  S     0.397864  0.053518  4.514435
  S     0.027496  3.532635  4.607432
