16  
    
  C    -2.667888 -1.871962  1.995602
  C    -2.957705  2.192676  1.804726
  C    -3.896939 -2.058452  1.261149
  C    -4.052682  1.544159  1.098925
  N    -1.631047 -1.865209  1.171347
  N    -1.951399  2.584382  1.041307
  N    -3.793802 -2.195235 -0.063380
  N    -3.887952  1.523674 -0.206853
  N    -4.498774 -1.844713  3.806974
  N    -4.840462  1.683801  3.612088
  S    -5.242249 -2.053742  2.323953
  S    -5.473922  1.351014  2.090056
  S    -2.123725 -2.192714 -0.355004
  S    -2.444928  2.307498 -0.519708
  S    -2.844299 -1.747087  3.714689
  S    -3.282151  2.322217  3.500060
