16  
    
  C     2.741769  1.131715  3.571653
  C     2.926121  5.000160  3.652955
  C     1.575266  0.761870  2.838925
  C     1.601459  4.861572  3.040453
  N     3.743683  1.574548  2.802720
  N     3.931942  4.826397  2.790745
  N     1.722614  0.803160  1.524849
  N     1.633282  4.852994  1.707717
  N     0.784982  0.836605  5.286857
  N     1.250616  5.464037  5.481191
  S     0.112290  0.468320  3.816955
  S     0.312024  5.212739  4.136303
  S     3.290663  1.387966  1.250642
  S     3.262798  4.889693  1.333890
  S     2.411251  1.053895  5.245130
  S     2.905473  5.293650  5.322637
