16  
    
  C     3.630428  2.162044  3.596276
  C     3.486635  5.312203  3.576249
  C     2.476610  1.613267  2.905630
  C     2.224752  5.009089  2.944285
  N     4.700267  2.359404  2.833584
  N     4.460667  5.559277  2.656531
  N     2.715118  1.301213  1.632314
  N     2.250340  4.846852  1.630068
  N     1.783464  1.939621  5.407640
  N     1.730346  4.892126  5.489392
  S     1.137125  1.384935  3.928004
  S     0.952067  4.618661  4.017219
  S     4.329986  1.743213  1.363872
  S     3.821003  5.203352  1.188934
  S     3.444931  2.188661  5.340808
  S     3.277196  5.364020  5.318019
