16  
    
  C    -4.150324 -2.078273  1.861429
  C    -4.134031  1.384470  1.786682
  C    -5.467858 -2.146477  1.329040
  C    -5.423182  1.183828  1.071117
  N    -3.193556 -2.043494  0.913923
  N    -3.027134  1.261814  1.038375
  N    -5.566294 -2.457674  0.024137
  N    -5.212243  1.163996 -0.250688
  N    -5.655154 -2.195768  3.940922
  N    -6.077768  1.533621  3.494986
  S    -6.670722 -2.282840  2.613199
  S    -6.842252  1.270076  2.022768
  S    -4.017384 -2.460177 -0.487086
  S    -3.631590  1.155074 -0.541693
  S    -4.069442 -2.022494  3.543418
  S    -4.361231  1.577056  3.462062
