16  
    
  C    -4.789278 -2.357568  1.807474
  C    -5.052236  1.186226  1.745075
  C    -6.030248 -2.839012  1.213377
  C    -6.156232  0.450991  1.130373
  N    -3.810947 -2.081732  0.941700
  N    -3.916517  1.273992  1.001410
  N    -5.932346 -3.072773 -0.091565
  N    -5.927094  0.246002 -0.186646
  N    -6.381840 -3.001752  3.728067
  N    -6.843935  0.946874  3.587273
  S    -7.287642 -3.252753  2.326898
  S    -7.477569  0.135211  2.205398
  S    -4.388226 -2.587058 -0.544826
  S    -4.408907  0.757885 -0.495657
  S    -4.936190 -2.159052  3.485508
  S    -5.248103  1.503350  3.447647
