16  
    
  C     2.379965  1.052466  3.246099
  C     2.931524  5.435410  3.901785
  C     1.233268  0.548389  2.559586
  C     1.717755  4.910522  3.327137
  N     3.436955  1.174859  2.472444
  N     4.004122  5.310926  3.125413
  N     1.456499  0.324053  1.262572
  N     1.816365  4.618442  2.012173
  N     0.565593  1.186035  4.959480
  N     1.149262  5.836832  5.732665
  S    -0.084998  0.390408  3.640414
  S     0.398341  4.983142  4.483561
  S     3.048896  0.768415  1.022632
  S     3.421883  4.861901  1.664615
  S     2.180077  1.310645  4.921753
  S     2.818864  5.913453  5.580771
