16  
    
  C    -2.531602 -1.153505  2.168335
  C    -2.620018  2.497558  2.356304
  C    -3.725017 -1.765580  1.506171
  C    -3.783009  1.925465  1.739431
  N    -1.476976 -0.956480  1.386570
  N    -1.713190  3.001345  1.509698
  N    -3.579196 -1.794935  0.198630
  N    -3.628226  1.768404  0.429804
  N    -4.257158 -1.809367  4.005942
  N    -4.366227  2.021512  4.166766
  S    -5.060506 -2.028322  2.587604
  S    -5.022063  1.387616  2.802487
  S    -2.018055 -1.398460 -0.159392
  S    -2.259846  2.567395 -0.016386
  S    -2.796505 -1.012904  3.946064
  S    -2.844759  2.618256  4.096113
