16  
    
  C    -5.145666 -2.483228  1.880303
  C    -5.352896  0.972434  1.594908
  C    -6.396900 -2.751645  1.239650
  C    -6.674718  0.766549  0.969871
  N    -4.110897 -2.508182  1.019423
  N    -4.299454  1.120469  0.775716
  N    -6.350568 -3.150080 -0.028849
  N    -6.659711  0.656741 -0.380423
  N    -6.906372 -2.045520  3.620766
  N    -7.161811  1.063894  3.429291
  S    -7.669299 -2.763763  2.360410
  S    -8.004373  0.963528  2.068668
  S    -4.747654 -2.898574 -0.435298
  S    -5.013805  0.912646 -0.767667
  S    -5.257200 -2.107710  3.582970
  S    -5.554061  1.348030  3.265929
