16  
    
  C    -2.563629 -1.311045  2.252811
  C    -2.597027  2.496972  2.315171
  C    -3.759210 -1.627092  1.550488
  C    -3.664929  1.781632  1.726184
  N    -1.609351 -1.012396  1.346369
  N    -1.620395  2.893313  1.484179
  N    -3.686011 -1.876395  0.230826
  N    -3.623116  1.792284  0.374890
  N    -4.347562 -1.736211  4.030026
  N    -4.401813  2.016478  4.205303
  S    -5.084046 -2.014278  2.532939
  S    -5.070665  1.439676  2.759779
  S    -2.129964 -1.468164 -0.145770
  S    -2.215087  2.587364 -0.048424
  S    -2.787794 -1.093690  3.955937
  S    -2.802017  2.521265  4.073798
