16  
    
  C    -4.178680 -2.321106  1.660897
  C    -4.315554  1.770842  1.907291
  C    -5.444399 -2.646318  1.034098
  C    -5.437689  1.098103  1.304315
  N    -3.215870 -2.285426  0.771004
  N    -3.201137  1.704534  1.198530
  N    -5.348012 -3.027387 -0.267076
  N    -5.256704  0.702979  0.045622
  N    -5.983964 -2.130773  3.553705
  N    -6.058542  1.471475  3.719829
  S    -6.794163 -2.722353  2.182604
  S    -6.829810  0.986543  2.258058
  S    -3.767436 -2.798673 -0.726214
  S    -3.615930  0.970456 -0.259683
  S    -4.302319 -1.859994  3.355150
  S    -4.501509  2.154461  3.569569
