16  
    
  C    -0.160797 -0.131999  2.698848
  C     0.196872  3.458057  2.297756
  C    -1.359322 -0.624871  2.051230
  C    -1.107343  3.169265  1.681017
  N     0.970321 -0.156011  1.948226
  N     1.122262  3.783717  1.431499
  N    -1.206234 -0.770656  0.729974
  N    -1.076100  3.204304  0.376181
  N    -2.052192 -0.553736  4.473236
  N    -1.511830  3.115447  4.203212
  S    -2.791470 -0.839520  3.016129
  S    -2.350539  2.956147  2.830705
  S     0.373586 -0.548319  0.472407
  S     0.540090  3.475309 -0.080069
  S    -0.400620 -0.307634  4.391264
  S     0.112252  3.428313  4.058174
