16  
    
  C    -2.529286 -1.216703  2.182028
  C    -2.577949  2.511972  2.377201
  C    -3.738709 -1.717492  1.509961
  C    -3.740110  1.890953  1.720901
  N    -1.520518 -0.957650  1.378643
  N    -1.692704  2.962956  1.480744
  N    -3.600166 -1.808275  0.209938
  N    -3.621246  1.767720  0.422408
  N    -4.274712 -1.792694  4.009889
  N    -4.376037  2.021154  4.181790
  S    -5.069131 -2.021869  2.560837
  S    -5.047722  1.394537  2.793504
  S    -2.060088 -1.427283 -0.153707
  S    -2.249718  2.582829 -0.023715
  S    -2.797638 -1.031808  3.964562
  S    -2.837862  2.587267  4.086832
