16  
    
  C    -1.977381 -1.021054  2.058800
  C    -2.488986  2.524602  1.992138
  C    -3.148295 -1.716687  1.449460
  C    -3.775014  2.214106  1.452379
  N    -0.975916 -0.879338  1.224618
  N    -1.477929  2.615468  1.137822
  N    -3.070064 -1.699385  0.136612
  N    -3.710405  1.844288  0.173482
  N    -3.607999 -1.540397  3.957154
  N    -4.194593  2.473554  3.945191
  S    -4.392446 -2.056699  2.562668
  S    -5.040334  1.945870  2.622704
  S    -1.495597 -1.326517 -0.267283
  S    -2.163794  2.162513 -0.332706
  S    -2.126472 -0.845792  3.803021
  S    -2.639498  2.917923  3.704514
