16  
    
  C    -5.748931 -3.059118  1.556042
  C    -6.058774  0.789649  1.367526
  C    -6.893955 -3.468111  0.830551
  C    -7.211439  0.203688  0.706578
  N    -4.660971 -2.960363  0.782009
  N    -5.132474  1.198185  0.491113
  N    -6.685817 -3.623112 -0.476980
  N    -7.216071  0.198073 -0.640247
  N    -7.800078 -3.094820  3.190367
  N    -7.660019  0.255102  3.268643
  S    -8.419601 -3.392196  1.661238
  S    -8.543974 -0.098439  1.902626
  S    -5.135148 -3.256557 -0.771432
  S    -5.795747  0.949464 -1.018590
  S    -6.185847 -3.062961  3.328092
  S    -6.129197  0.831530  3.126305
