16  
    
  C    -1.476929 -1.228104  2.697047
  C    -1.676137  2.678115  2.364542
  C    -2.642265 -1.566797  1.942105
  C    -2.795054  2.108464  1.671514
  N    -0.412376 -0.787571  2.015657
  N    -0.582169  2.721849  1.634995
  N    -2.383197 -1.737481  0.655277
  N    -2.602439  1.835050  0.379243
  N    -3.471342 -1.422575  4.351814
  N    -3.540383  2.422129  4.170622
  S    -4.068729 -1.890251  2.814539
  S    -4.265617  2.142263  2.681153
  S    -0.823744 -1.164994  0.431625
  S    -1.030089  2.286991  0.102881
  S    -1.812412 -1.244693  4.406383
  S    -1.920581  2.841698  4.124464
