16  
    
  C     0.000967 -0.675142  2.422382
  C    -0.235566  3.263294  2.629508
  C    -1.264277 -0.930179  1.831487
  C    -1.348240  2.563567  1.970498
  N     1.000691 -0.366794  1.577836
  N     0.692468  3.668277  1.775467
  N    -1.156918 -1.097752  0.496154
  N    -1.146486  2.343844  0.664928
  N    -1.690701 -0.860021  4.370240
  N    -1.910913  2.856931  4.476626
  S    -2.567728 -1.328542  2.971581
  S    -2.645854  2.260084  3.089550
  S     0.360167 -0.667020  0.101821
  S     0.392962  2.959194  0.314081
  S    -0.091704 -0.478614  4.165606
  S    -0.381824  3.491134  4.337341
