16  
    
  C    -4.057153 -2.252426  1.756516
  C    -4.042039  1.403556  1.677445
  C    -5.342690 -2.367887  1.199296
  C    -5.369832  1.306046  1.014948
  N    -3.083642 -2.232902  0.862403
  N    -2.960546  1.329678  0.897534
  N    -5.424539 -2.402169 -0.118238
  N    -5.211747  1.117899 -0.281481
  N    -5.729228 -1.813192  3.695596
  N    -5.873908  1.591413  3.573248
  S    -6.582360 -2.282437  2.369880
  S    -6.719891  1.320661  2.108658
  S    -3.821563 -2.255005 -0.613158
  S    -3.537582  1.121203 -0.685986
  S    -4.078690 -1.821905  3.426839
  S    -4.229736  1.677760  3.370759
