16  
    
  C    -5.688531 -3.054109  1.431927
  C    -6.019004  0.844633  1.486760
  C    -6.905379 -3.525873  0.795288
  C    -7.156054  0.155943  0.953964
  N    -4.747361 -2.680899  0.583179
  N    -5.136289  1.266439  0.586883
  N    -6.824869 -3.802485 -0.506126
  N    -7.071854  0.091842 -0.364477
  N    -7.453197 -3.436875  3.280664
  N    -7.466629  0.220182  3.491255
  S    -8.162742 -3.901681  1.833076
  S    -8.312632 -0.227753  2.091346
  S    -5.348164 -3.176546 -0.952528
  S    -5.672673  0.808886 -0.864179
  S    -5.936844 -2.808333  3.123880
  S    -6.040013  1.071720  3.236786
