16  
    
  C     1.452963  0.651903  2.958174
  C     0.920895  3.919545  2.571363
  C     0.251829  0.268772  2.258858
  C    -0.282844  3.590777  1.818267
  N     2.556875  0.579699  2.197328
  N     1.956692  4.201228  1.805885
  N     0.446360 -0.160636  1.042015
  N    -0.037333  3.324621  0.553162
  N    -0.368124  0.783357  4.616746
  N    -0.933458  3.669282  4.323141
  S    -1.149530  0.307658  3.279489
  S    -1.630062  3.181081  2.892143
  S     2.080405 -0.005624  0.752006
  S     1.531757  3.754685  0.241743
  S     1.237247  1.038930  4.575503
  S     0.663339  4.053932  4.288604
