16  
    
  C    -3.043007 -1.536946  2.273374
  C    -3.278207  1.943610  2.029002
  C    -4.272220 -1.854967  1.578142
  C    -4.460887  1.403704  1.367433
  N    -2.010420 -1.219198  1.473798
  N    -2.277019  2.112246  1.177496
  N    -4.154911 -1.992286  0.270795
  N    -4.389204  1.307822  0.014456
  N    -4.870339 -1.535698  4.072535
  N    -5.016647  1.567883  3.930475
  S    -5.683709 -1.842413  2.651981
  S    -5.797662  1.161629  2.508923
  S    -2.579479 -1.595225 -0.063075
  S    -2.841370  1.809687 -0.404791
  S    -3.190669 -1.284308  3.966515
  S    -3.358270  1.873455  3.817784
