16  
    
  C    -2.545426 -1.122434  2.172644
  C    -2.660821  2.504475  2.341357
  C    -3.693848 -1.774722  1.516157
  C    -3.802804  1.935634  1.745760
  N    -1.454305 -0.958181  1.388981
  N    -1.731228  3.023669  1.535599
  N    -3.564999 -1.798182  0.182921
  N    -3.644099  1.774639  0.427487
  N    -4.244317 -1.817256  4.010460
  N    -4.363812  2.023332  4.165490
  S    -5.051751 -2.036547  2.608826
  S    -5.002435  1.384741  2.808332
  S    -1.982472 -1.371663 -0.163807
  S    -2.264722  2.552120 -0.009560
  S    -2.792172 -0.999376  3.921881
  S    -2.846002  2.642532  4.100966
