16  
    
  C    -2.964653 -1.387108  2.112422
  C    -3.186075  1.864513  1.978132
  C    -4.214219 -1.731827  1.471746
  C    -4.377096  1.475931  1.169013
  N    -1.979727 -1.149387  1.259158
  N    -2.096381  1.874867  1.244260
  N    -4.083551 -1.922161  0.145235
  N    -4.153483  1.342584 -0.134455
  N    -4.662180 -1.678059  4.016709
  N    -5.089173  1.678456  3.652923
  S    -5.549266 -2.010298  2.605912
  S    -5.796956  1.214407  2.231919
  S    -2.503888 -1.564459 -0.232603
  S    -2.533784  1.636283 -0.345972
  S    -3.156153 -1.070672  3.791704
  S    -3.476718  1.997385  3.702227
