16  
    
  C     3.010686  1.471391  3.340804
  C     2.988068  5.151206  3.260123
  C     1.748773  1.246138  2.700391
  C     1.826101  4.681058  2.590170
  N     4.073824  1.608178  2.535598
  N     4.093537  5.209804  2.534132
  N     1.853624  1.241918  1.368097
  N     1.970275  4.598990  1.253097
  N     1.182517  1.323505  5.252342
  N     1.134839  5.013872  5.071136
  S     0.405542  1.007595  3.811824
  S     0.434219  4.590099  3.646958
  S     3.505743  1.406834  1.040587
  S     3.662922  4.754968  1.025032
  S     2.818786  1.584545  5.042222
  S     2.766186  5.274865  4.968427
