16  
    
  C     2.734297  1.349167  3.675515
  C     2.976629  5.213197  3.622358
  C     1.496989  1.053301  2.966229
  C     1.705823  4.923399  2.966737
  N     3.812255  1.531270  2.925373
  N     4.026870  5.221739  2.775345
  N     1.645802  0.985160  1.663014
  N     1.778963  4.936231  1.635217
  N     0.964565  0.720401  5.410745
  N     1.106550  5.030686  5.466636
  S     0.163146  0.606449  3.931608
  S     0.290319  5.036811  4.018986
  S     3.271026  1.251249  1.324742
  S     3.428036  4.917876  1.264365
  S     2.553495  1.278569  5.403075
  S     2.764766  5.234280  5.387522
