16  
    
  C     0.718940  0.317879  3.076227
  C     0.586127  3.957174  2.951585
  C    -0.566157  0.227083  2.418228
  C    -0.560577  3.304525  2.374010
  N     1.782431  0.430058  2.244553
  N     1.640102  3.988968  2.168792
  N    -0.490329 -0.028398  1.121659
  N    -0.391092  2.812068  1.186299
  N    -1.094126  0.254657  5.004807
  N    -1.130803  3.999118  4.822320
  S    -1.933122  0.295245  3.576068
  S    -1.833235  3.250593  3.487117
  S     1.130684  0.137966  0.718529
  S     1.131618  3.359689  0.672120
  S     0.542698  0.487711  4.822041
  S     0.427113  4.379655  4.671805
