16  
    
  C     3.556896  1.682233  3.584450
  C     3.184070  5.152643  3.468086
  C     2.292986  1.259513  3.111890
  C     1.955032  4.687634  2.818282
  N     4.494559  1.906463  2.648469
  N     4.141313  5.505442  2.555209
  N     2.299625  1.225328  1.787868
  N     2.066370  4.459232  1.518628
  N     1.997384  1.375229  5.659921
  N     1.249051  5.099679  5.239764
  S     1.074432  0.997574  4.310279
  S     0.654133  4.319881  3.883240
  S     3.773098  1.645819  1.209216
  S     3.552980  5.056702  1.035650
  S     3.593461  1.847012  5.321882
  S     2.912890  5.470704  5.205287
