16  
    
  C    -3.955244 -1.908389  1.775367
  C    -3.705241  1.881624  1.859875
  C    -5.149078 -2.349344  1.093444
  C    -4.860588  1.355734  1.203480
  N    -2.970596 -1.699638  0.938574
  N    -2.723554  2.109915  1.024647
  N    -5.043350 -2.551864 -0.230165
  N    -4.908100  1.372004 -0.121908
  N    -5.791638 -1.941116  3.468697
  N    -5.349416  1.473247  3.679958
  S    -6.430105 -2.772731  2.160196
  S    -6.183770  1.140979  2.292343
  S    -3.475564 -2.089589 -0.586953
  S    -3.338782  1.856123 -0.510609
  S    -4.175250 -1.653755  3.449178
  S    -3.744269  1.899219  3.560228
