16  
    
  C    -3.846386 -2.316196  1.632039
  C    -3.524844  2.030869  1.626022
  C    -5.149784 -2.452426  1.021770
  C    -4.686073  1.392347  1.015478
  N    -2.852073 -1.890199  0.789767
  N    -2.571497  2.162280  0.732662
  N    -5.056772 -2.459221 -0.293893
  N    -4.628450  1.243580 -0.307685
  N    -5.637187 -2.438038  3.571727
  N    -5.199406  1.538402  3.599364
  S    -6.487978 -2.724632  2.180590
  S    -5.920441  0.968182  2.210891
  S    -3.530023 -2.028992 -0.732206
  S    -3.114305  1.735908 -0.736164
  S    -3.957556 -2.439259  3.417229
  S    -3.668461  2.128497  3.337930
