16  
    
  C    -1.054713 -0.408540  2.416814
  C    -1.150286  2.981961  2.354109
  C    -2.200543 -1.086949  1.747530
  C    -2.426927  2.848967  1.744896
  N     0.023129 -0.164344  1.628120
  N    -0.113992  3.115571  1.528121
  N    -2.058151 -1.146278  0.426118
  N    -2.324412  2.533200  0.465987
  N    -2.826740 -0.982522  4.227637
  N    -2.945291  3.176281  4.217449
  S    -3.513179 -1.443058  2.727815
  S    -3.758273  3.008400  2.795475
  S    -0.526294 -0.557240  0.073508
  S    -0.724803  2.661882  0.059427
  S    -1.243095 -0.455203  4.112567
  S    -1.309472  3.264556  4.120474
