16  
    
  C    -1.438337 -1.128530  2.535069
  C    -1.457241  2.617250  2.274796
  C    -2.573231 -1.547712  1.680691
  C    -2.547595  1.965035  1.603471
  N    -0.334128 -0.788442  1.875719
  N    -0.398145  2.908529  1.543098
  N    -2.214204 -1.661951  0.413350
  N    -2.355481  1.767409  0.320955
  N    -3.451922 -1.536524  4.178377
  N    -3.431500  2.452823  3.974269
  S    -3.956232 -1.943337  2.627781
  S    -3.977632  1.746207  2.582356
  S    -0.666370 -1.099293  0.286512
  S    -0.796859  2.328338  0.007722
  S    -1.816666 -0.981922  4.249069
  S    -1.880255  3.024540  3.921799
