16  
    
  C     2.073645  0.822683  3.080885
  C     2.172447  4.542228  3.067739
  C     0.780426  0.684309  2.430493
  C     1.034964  3.978783  2.318252
  N     3.112368  0.564842  2.279862
  N     3.219892  4.596712  2.244930
  N     0.865603  0.429361  1.109425
  N     1.255973  3.570929  1.056286
  N     0.214922  1.048319  4.956936
  N     0.286621  4.409511  4.713631
  S    -0.543391  0.567223  3.534040
  S    -0.423924  3.975418  3.305268
  S     2.439313  0.224540  0.815038
  S     2.758060  4.039004  0.755795
  S     1.965901  1.206305  4.764772
  S     1.879864  4.825932  4.789836
