16  
    
  C     0.188091  0.085506  2.697662
  C     0.026996  3.664825  2.716138
  C    -0.962164 -0.559667  2.105505
  C    -1.020133  2.877498  2.013143
  N     1.217414  0.274535  1.878900
  N     1.105441  3.785585  1.971411
  N    -0.829683 -0.707347  0.792676
  N    -0.800326  2.773108  0.691576
  N    -1.536540 -0.291387  4.647855
  N    -1.648378  3.167721  4.531801
  S    -2.277531 -0.912994  3.266467
  S    -2.322694  2.570080  3.100929
  S     0.691194 -0.212051  0.390622
  S     0.733648  3.398446  0.411091
  S    -0.007100  0.314921  4.445491
  S    -0.182427  3.872470  4.417709
