16  
    
  C    -4.030933 -1.755432  1.625104
  C    -3.853091  1.475307  1.701404
  C    -5.228332 -2.252489  1.037520
  C    -5.168984  1.355270  1.093320
  N    -2.938838 -1.833319  0.869855
  N    -2.857884  1.582772  0.805424
  N    -5.096065 -2.510924 -0.260990
  N    -5.061340  1.081564 -0.204734
  N    -5.779355 -1.949558  3.571383
  N    -5.678058  1.531433  3.646982
  S    -6.534979 -2.262839  2.119580
  S    -6.520564  1.373150  2.240932
  S    -3.488441 -2.322883 -0.607561
  S    -3.476738  1.298447 -0.682608
  S    -4.185498 -1.657393  3.424050
  S    -4.040622  1.693666  3.456262
