16  
    
  C     1.175217  0.191607  2.989728
  C     0.657207  3.890674  3.173252
  C    -0.060147 -0.416302  2.424701
  C    -0.479979  3.306652  2.500812
  N     2.118804  0.314008  2.072063
  N     1.791274  4.052215  2.478042
  N     0.060767 -0.799703  1.178904
  N    -0.358474  3.327543  1.206533
  N    -0.514709  0.206877  4.895844
  N    -1.049968  3.215138  4.993634
  S    -1.333813 -0.497359  3.613145
  S    -1.886677  2.949900  3.500658
  S     1.568531 -0.327219  0.611431
  S     1.242169  3.796489  0.871777
  S     1.092528  0.614351  4.699759
  S     0.524774  3.620300  4.860180
