16  
    
  C     2.838934  1.540227  3.557814
  C     2.926760  5.230364  3.386480
  C     1.643323  0.909954  3.015763
  C     1.783821  4.606846  2.753076
  N     3.833284  1.726306  2.679113
  N     3.872299  5.602595  2.527867
  N     1.689702  0.593406  1.739328
  N     1.849234  4.613846  1.429499
  N     1.175269  1.313831  5.521664
  N     1.143058  4.968570  5.280275
  S     0.405613  0.627818  4.229745
  S     0.435020  4.310772  3.936178
  S     3.171565  1.008169  1.228776
  S     3.377430  5.152178  0.989993
  S     2.692107  1.939106  5.201209
  S     2.713632  5.404627  5.109246
