16  
    
  C    -0.210508 -0.393027  2.780483
  C     0.160334  3.513639  2.311958
  C    -1.363989 -0.683057  1.990249
  C    -1.108160  3.091666  1.622973
  N     0.840251 -0.070901  2.049168
  N     1.174442  3.720467  1.512831
  N    -1.120417 -0.959317  0.702960
  N    -0.964493  2.999995  0.310133
  N    -2.071304 -0.632551  4.474808
  N    -1.465074  2.913789  4.269329
  S    -2.758877 -0.910562  2.971088
  S    -2.381766  2.872398  2.814936
  S     0.491037 -0.511865  0.440351
  S     0.571111  3.496934 -0.054842
  S    -0.472174 -0.270329  4.489975
  S     0.128014  3.401436  4.046964
