16  
    
  C    -3.889471 -2.262440  1.677173
  C    -3.430028  1.778378  1.611448
  C    -5.124813 -2.473819  0.983360
  C    -4.684573  1.255730  0.962695
  N    -2.855693 -2.129489  0.829987
  N    -2.480795  2.088660  0.756329
  N    -5.136610 -2.266605 -0.330453
  N    -4.574448  1.043253 -0.355320
  N    -5.580943 -2.359453  3.502526
  N    -5.172190  1.589248  3.542965
  S    -6.435531 -2.749015  2.117174
  S    -5.890963  0.961877  2.191032
  S    -3.508338 -2.021423 -0.690243
  S    -3.056797  1.662031 -0.813992
  S    -3.939346 -2.566365  3.329224
  S    -3.636965  2.157373  3.309181
