16  
    
  C    -1.807664 -1.035806  2.358020
  C    -1.956658  2.575297  2.647858
  C    -3.117911 -1.406862  1.807314
  C    -3.040859  1.985202  1.921184
  N    -0.865000 -0.780038  1.461454
  N    -0.886140  2.681861  1.880978
  N    -3.028209 -1.676448  0.513056
  N    -2.900396  1.783035  0.617959
  N    -3.529038 -1.171108  4.330557
  N    -3.731310  2.101051  4.413969
  S    -4.438070 -1.458347  2.921723
  S    -4.449113  1.774097  2.940297
  S    -1.495060 -1.324154 -0.000598
  S    -1.342688  2.329618  0.302508
  S    -1.905108 -0.830099  4.086501
  S    -2.119881  2.407369  4.376212
