16  
    
  C    -4.262343 -2.447328  1.508789
  C    -4.321544  1.491454  2.050311
  C    -5.496219 -2.892906  0.888335
  C    -5.462963  0.954076  1.372102
  N    -3.178531 -2.346352  0.687334
  N    -3.308890  1.751967  1.233923
  N    -5.317181 -3.169600 -0.385871
  N    -5.316398  0.639297  0.092245
  N    -6.043738 -2.576229  3.400493
  N    -6.126328  1.446311  3.773352
  S    -6.800559 -3.107657  2.027405
  S    -6.850646  0.854721  2.323944
  S    -3.738451 -2.791857 -0.801253
  S    -3.747172  1.258670 -0.277261
  S    -4.443021 -2.203828  3.208928
  S    -4.518430  1.963069  3.725673
