16  
    
  C     1.498056  1.060319  3.202406
  C     1.640819  4.576301  3.394108
  C     0.271123  0.541714  2.583907
  C     0.377380  4.140873  2.790880
  N     2.531755  1.241795  2.403462
  N     2.690065  4.465918  2.575392
  N     0.387141  0.297712  1.284609
  N     0.426721  3.846027  1.495962
  N    -0.296946  0.922320  5.006925
  N     0.001913  4.598433  5.366035
  S    -1.045650  0.376935  3.730011
  S    -0.833852  4.285957  3.968761
  S     1.930273  0.773350  0.916916
  S     2.039376  4.004067  1.098331
  S     1.321524  1.239313  4.880143
  S     1.638955  4.862055  5.099206
