16  
    
  C    -5.354888 -2.146562  1.592287
  C    -5.355161  1.150080  1.418362
  C    -6.634784 -2.520907  0.997368
  C    -6.582133  0.683743  0.799499
  N    -4.360537 -1.886920  0.716453
  N    -4.322888  1.184909  0.550634
  N    -6.450690 -2.846291 -0.287064
  N    -6.427160  0.498571 -0.508078
  N    -7.052111 -2.571283  3.498403
  N    -7.056529  0.964992  3.252791
  S    -7.945844 -2.864559  2.091745
  S    -7.897163  0.575274  1.916605
  S    -4.892753 -2.559315 -0.729597
  S    -4.868231  0.838302 -0.939698
  S    -5.491775 -2.055149  3.333387
  S    -5.469668  1.379209  3.150485
