16  
    
  C    -1.397031 -0.943336  2.244280
  C    -1.497448  2.977653  2.006572
  C    -2.505577 -1.375243  1.484869
  C    -2.569815  2.256783  1.347462
  N    -0.286588 -0.778046  1.515408
  N    -0.456543  3.181515  1.239098
  N    -2.399851 -1.353210  0.139440
  N    -2.432960  2.025632  0.052639
  N    -3.172151 -1.323840  3.978179
  N    -3.314068  2.465947  3.824066
  S    -3.870759 -1.642881  2.531400
  S    -3.878554  1.701377  2.444853
  S    -0.744195 -1.011371 -0.072817
  S    -0.927387  2.685637 -0.290399
  S    -1.589445 -0.758139  3.963192
  S    -1.916307  3.332472  3.629221
