16  
    
  C    -1.522591 -1.074301  2.687480
  C    -1.705835  2.471160  2.402606
  C    -2.614149 -1.658873  1.955350
  C    -2.926811  2.081997  1.710330
  N    -0.452445 -0.864145  1.948732
  N    -0.673220  2.778142  1.640856
  N    -2.408681 -1.731539  0.661468
  N    -2.708871  1.895362  0.415654
  N    -3.483371 -1.462882  4.360139
  N    -3.564875  2.346019  4.188576
  S    -4.132328 -1.813354  2.896631
  S    -4.271925  2.206951  2.715991
  S    -0.912276 -1.146461  0.360552
  S    -1.112730  2.331504  0.094454
  S    -1.858928 -1.236733  4.454029
  S    -1.941149  2.780128  4.094059
