16  
    
  C    -1.111714 -0.648781  2.318793
  C    -0.687611  3.079779  2.752615
  C    -2.236312 -1.291492  1.727923
  C    -1.916079  2.671705  2.112547
  N    -0.044430 -0.614647  1.555104
  N     0.298927  3.321280  1.861963
  N    -2.178835 -1.583553  0.404770
  N    -1.744272  2.327656  0.826574
  N    -2.784469 -0.877413  4.242150
  N    -2.481537  3.075723  4.628992
  S    -3.591929 -1.183372  2.822695
  S    -3.324856  2.775437  3.195847
  S    -0.552037 -1.059520  0.039221
  S    -0.160654  2.627692  0.466137
  S    -1.180060 -0.384664  4.056020
  S    -0.819857  3.386610  4.404545
