16  
    
  C     1.578662  0.656154  2.816063
  C     0.867765  3.943393  2.500035
  C     0.349018  0.184558  2.258248
  C    -0.338319  3.266354  1.857673
  N     2.605735  0.832283  2.004091
  N     1.917343  4.083050  1.692239
  N     0.458613  0.013035  0.929903
  N    -0.276997  3.274564  0.531425
  N    -0.170194  0.633427  4.721460
  N    -0.824190  3.616188  4.414122
  S    -0.976479  0.051269  3.346659
  S    -1.619566  3.189781  3.010187
  S     2.023555  0.405280  0.494367
  S     1.319796  3.659979  0.139880
  S     1.509334  1.085130  4.473063
  S     0.762476  4.187862  4.265211
