16  
    
  C     2.026949  1.183897  3.026883
  C     2.201050  4.393339  2.997516
  C     0.805917  0.700993  2.452453
  C     1.047579  3.838106  2.336958
  N     3.055169  1.263011  2.205113
  N     3.291518  4.537149  2.244512
  N     0.930157  0.421227  1.160531
  N     1.268105  3.688049  1.054917
  N     0.242981  0.984588  4.933498
  N     0.265648  4.303713  4.800738
  S    -0.538906  0.502286  3.615319
  S    -0.372124  3.893692  3.264247
  S     2.485245  0.757976  0.731326
  S     2.897345  3.976919  0.717594
  S     1.832834  1.372954  4.769940
  S     1.920343  4.560019  4.740675
