16  
    
  C    -0.729586 -0.832023  2.474306
  C    -0.901196  3.130135  2.471267
  C    -1.923403 -1.368885  1.776587
  C    -2.180385  2.846089  1.820732
  N     0.289995 -0.701187  1.659098
  N     0.149887  3.019907  1.668161
  N    -1.796722 -1.285148  0.447097
  N    -2.116693  2.635638  0.516805
  N    -2.713453 -1.047754  4.231063
  N    -2.685574  3.104061  4.293141
  S    -3.317504 -1.608604  2.787486
  S    -3.497821  2.706870  2.932827
  S    -0.263208 -0.892154  0.112067
  S    -0.501688  2.796419  0.123885
  S    -1.086517 -0.547946  4.146926
  S    -1.080737  3.396742  4.200949
