16  
    
  C    -3.790515 -2.445992  1.644759
  C    -3.378641  1.800089  1.606801
  C    -5.076761 -2.522774  0.987137
  C    -4.596612  1.195801  0.963672
  N    -2.738670 -2.259980  0.899581
  N    -2.312672  1.875051  0.808744
  N    -4.981946 -2.552813 -0.334855
  N    -4.430176  0.895386 -0.305307
  N    -5.504974 -2.895806  3.475730
  N    -5.098544  1.450128  3.573217
  S    -6.335081 -2.720684  2.069844
  S    -5.864697  0.841404  2.171568
  S    -3.352297 -2.281537 -0.645646
  S    -2.843788  1.240470 -0.731069
  S    -3.838645 -2.634367  3.393383
  S    -3.559704  2.128451  3.311515
