16  
    
  C     2.174030  1.121044  3.438801
  C     2.017025  4.936441  3.128278
  C     0.917202  0.679934  2.887502
  C     0.820844  4.601616  2.392008
  N     3.158751  1.220340  2.562496
  N     3.102902  5.216046  2.424785
  N     0.992326  0.400520  1.599423
  N     1.064245  4.410483  1.091836
  N     0.594541  0.991117  5.448287
  N     0.183731  4.395387  4.958424
  S    -0.318741  0.599260  4.124306
  S    -0.464658  4.206130  3.463175
  S     2.609066  0.694347  1.125898
  S     2.655310  4.971206  0.844204
  S     2.170879  1.160370  5.185178
  S     1.782406  4.989419  4.873994
