16  
    
  C    -3.163634 -1.921249  1.904713
  C    -3.601423  1.762119  2.054442
  C    -4.362620 -2.360855  1.234214
  C    -4.674037  1.008641  1.396742
  N    -2.184326 -1.843035  1.009949
  N    -2.512901  1.940562  1.306380
  N    -4.244942 -2.697980 -0.037082
  N    -4.404856  0.809755  0.114060
  N    -4.905454 -2.047598  3.771378
  N    -5.546966  1.480582  3.743519
  S    -5.586655 -2.788248  2.432614
  S    -6.140963  0.864752  2.351235
  S    -2.683332 -2.313008 -0.468683
  S    -2.856915  1.319443 -0.174143
  S    -3.358831 -1.428122  3.564730
  S    -4.008468  1.987795  3.715777
