16  
    
  C    -5.840940 -3.040042  1.538651
  C    -6.133672  0.858409  1.381161
  C    -6.973611 -3.454367  0.787122
  C    -7.270502  0.149948  0.841207
  N    -4.698675 -3.020389  0.891020
  N    -5.220555  1.333489  0.509495
  N    -6.694590 -3.561908 -0.520822
  N    -7.312603  0.133449 -0.494666
  N    -7.678856 -3.262430  3.276415
  N    -7.570804  0.274943  3.358264
  S    -8.378509 -3.590145  1.812178
  S    -8.352026 -0.365847  2.027655
  S    -5.067414 -3.306787 -0.623581
  S    -5.916041  0.874299 -0.946639
  S    -6.046043 -2.917447  3.202789
  S    -6.089707  0.929052  3.152305
