16  
    
  C     3.469476  1.684350  3.568986
  C     3.007690  5.332482  3.386471
  C     2.188308  1.253169  3.086638
  C     1.887592  4.606625  2.804366
  N     4.397947  1.926920  2.643235
  N     4.072768  5.434642  2.601261
  N     2.156562  1.075673  1.744931
  N     2.023383  4.448760  1.479911
  N     1.984837  1.463938  5.637965
  N     1.321766  4.866914  5.224192
  S     1.064112  0.921096  4.382217
  S     0.599066  4.314593  3.836298
  S     3.709987  1.508413  1.228387
  S     3.588076  4.977118  1.144464
  S     3.600113  1.700980  5.330708
  S     2.832230  5.515824  5.045640
