16  
    
  C     1.739660  0.591330  3.034234
  C     1.918032  4.188971  3.329018
  C     0.488103  0.206015  2.466432
  C     0.592355  4.125244  2.692852
  N     2.723994  0.797119  2.145566
  N     2.958562  4.365428  2.516096
  N     0.542383  0.047704  1.136959
  N     0.716380  4.195439  1.373014
  N     0.163623  0.350625  5.004414
  N     0.223317  3.941917  5.211373
  S    -0.800577  0.031900  3.593941
  S    -0.694299  3.764588  3.814607
  S     2.132833  0.466286  0.654494
  S     2.339049  4.341201  0.985228
  S     1.836513  0.480800  4.745145
  S     1.800795  4.260162  5.094725
