16  
    
  C     3.642215  1.953548  3.555754
  C     3.232404  5.370698  3.449792
  C     2.372758  1.521650  2.962289
  C     2.048868  4.805796  2.880287
  N     4.694486  2.156540  2.798817
  N     4.266412  5.513188  2.673490
  N     2.523136  1.316880  1.659868
  N     2.167852  4.662913  1.556107
  N     1.953403  1.427931  5.522716
  N     1.611090  5.012221  5.381786
  S     1.051480  1.245986  4.114242
  S     0.764370  4.474725  3.994286
  S     4.143988  1.715235  1.277523
  S     3.726116  5.172764  1.170023
  S     3.460463  2.169483  5.294036
  S     3.204160  5.358359  5.225028
