16  
    
  C    -1.609321 -1.099057  2.354112
  C    -1.792483  2.385295  2.310651
  C    -2.882261 -1.429754  1.765210
  C    -2.960925  1.882683  1.677015
  N    -0.635477 -1.139667  1.417255
  N    -0.822955  2.671243  1.471778
  N    -2.939490 -1.546005  0.410977
  N    -2.882867  1.747976  0.367872
  N    -3.270472 -0.927032  4.267777
  N    -3.584781  2.186033  4.147412
  S    -4.144508 -1.283445  2.917997
  S    -4.404458  1.747393  2.752949
  S    -1.368951 -1.289122 -0.041720
  S    -1.330375  2.190191 -0.016726
  S    -1.635631 -0.828860  4.060617
  S    -1.983144  2.590820  4.033755
