16  
    
  C    -1.440609 -1.139184  2.545987
  C    -1.454699  2.631071  2.281162
  C    -2.578145 -1.545112  1.687827
  C    -2.545812  1.962596  1.603176
  N    -0.333409 -0.789692  1.880165
  N    -0.393159  2.895788  1.547771
  N    -2.220825 -1.661966  0.410106
  N    -2.358983  1.773209  0.318282
  N    -3.446499 -1.544255  4.177730
  N    -3.433130  2.453206  3.980779
  S    -3.952696 -1.944618  2.626867
  S    -3.983858  1.746878  2.585263
  S    -0.667177 -1.103276  0.290399
  S    -0.797142  2.327804  0.011455
  S    -1.817750 -0.978688  4.252796
  S    -1.881045  3.024629  3.921978
