16  
    
  C    -5.365340 -2.545521  1.321279
  C    -5.434317  1.034206  1.282921
  C    -6.631968 -3.007046  0.756348
  C    -6.594362  0.540658  0.597916
  N    -4.391869 -2.290105  0.448184
  N    -4.478530  1.419381  0.468658
  N    -6.563607 -3.172722 -0.542615
  N    -6.375947  0.487834 -0.694865
  N    -6.874204 -3.113523  3.321852
  N    -7.170564  0.456514  3.069373
  S    -7.818775 -3.428141  2.015490
  S    -7.920090  0.118763  1.634044
  S    -4.996716 -2.829204 -1.015550
  S    -4.912254  1.122577 -1.059270
  S    -5.358117 -2.447955  3.033607
  S    -5.635236  1.212086  3.017631
