16  
    
  C    -1.474300 -1.142781  2.753903
  C    -1.725297  2.611967  2.415161
  C    -2.617603 -1.604815  1.971304
  C    -2.837337  2.046318  1.685684
  N    -0.441921 -0.827444  1.957207
  N    -0.644979  2.731560  1.630444
  N    -2.380603 -1.748856  0.667298
  N    -2.642351  1.865263  0.366459
  N    -3.469071 -1.431725  4.338455
  N    -3.557573  2.378595  4.191294
  S    -4.116199 -1.853170  2.864437
  S    -4.260860  2.190418  2.698847
  S    -0.867750 -1.147078  0.391382
  S    -1.080121  2.311430  0.101947
  S    -1.839008 -1.252710  4.420255
  S    -1.930726  2.809200  4.106735
