16  
    
  C    -2.935937 -1.827336  1.984919
  C    -3.406621  1.570223  2.053625
  C    -4.204304 -2.233251  1.496716
  C    -4.662185  1.243251  1.473898
  N    -1.988322 -1.705248  1.063953
  N    -2.360841  1.533869  1.210501
  N    -4.220386 -2.407368  0.187921
  N    -4.560043  1.044854  0.157140
  N    -4.617576 -2.029824  3.979944
  N    -5.170045  1.611955  4.015799
  S    -5.478936 -2.227543  2.599444
  S    -5.961033  1.178937  2.625227
  S    -2.708301 -2.035704 -0.355280
  S    -2.955465  1.225400 -0.287721
  S    -3.036804 -1.568330  3.690567
  S    -3.541278  1.742908  3.859223
