16  
    
  C    -4.325551 -2.511817  1.487283
  C    -4.457520  1.643368  1.939731
  C    -5.517473 -2.862732  0.782098
  C    -5.633747  0.978944  1.350519
  N    -3.267203 -2.173191  0.756652
  N    -3.448722  1.749711  1.111628
  N    -5.306943 -2.978596 -0.517519
  N    -5.497480  0.840766  0.018823
  N    -6.265085 -2.834527  3.312069
  N    -5.995060  1.078641  3.928194
  S    -6.881502 -3.302725  1.819031
  S    -6.807798  0.634300  2.515855
  S    -3.763702 -2.461099 -0.845706
  S    -3.999454  1.257665 -0.377441
  S    -4.671545 -2.323691  3.213597
  S    -4.386349  1.776350  3.699278
