16  
    
  C     1.700095  0.815535  3.271719
  C     2.041808  4.561570  3.291681
  C     0.626096  0.188073  2.506719
  C     0.819175  4.080507  2.608069
  N     2.753508  1.149583  2.531462
  N     3.013951  4.753541  2.437987
  N     0.917127  0.042171  1.233959
  N     0.901189  3.960753  1.284077
  N    -0.207843  0.345525  4.861957
  N     0.356714  4.108736  5.172169
  S    -0.761849 -0.305420  3.409975
  S    -0.397446  3.672925  3.815587
  S     2.391431  0.648674  0.993193
  S     2.401080  4.441743  0.955221
  S     1.354787  0.734839  4.999540
  S     1.873372  4.834187  5.002647
