16  
    
  C    -1.510001 -1.335669  2.157817
  C    -1.679160  2.298976  1.947065
  C    -2.777695 -1.318827  1.525105
  C    -2.981914  1.993395  1.303490
  N    -0.454431 -1.355027  1.318530
  N    -0.716126  2.406591  1.054443
  N    -2.744528 -1.533954  0.167911
  N    -2.964077  2.047351 -0.013950
  N    -3.227908 -0.996675  4.061277
  N    -3.452565  2.364174  3.821164
  S    -4.089001 -1.185445  2.641389
  S    -4.310747  1.804176  2.494208
  S    -1.137502 -1.403212 -0.202622
  S    -1.355961  2.242766 -0.443235
  S    -1.597289 -0.782698  3.798095
  S    -1.805760  2.455538  3.625003
