16  
    
  C    -5.869246 -2.959167  1.285802
  C    -5.983064  0.753857  1.403086
  C    -7.086685 -3.313779  0.547879
  C    -7.206218  0.680590  0.625055
  N    -4.735135 -2.978387  0.575906
  N    -4.944035  0.913595  0.603513
  N    -6.920121 -3.449884 -0.754027
  N    -7.064515  0.597507 -0.680979
  N    -7.778240 -3.373856  3.087157
  N    -7.820703  0.284836  3.174557
  S    -8.480708 -3.532096  1.615803
  S    -8.585138  0.351811  1.677226
  S    -5.253010 -3.255415 -1.045044
  S    -5.408139  0.816856 -1.024262
  S    -6.131268 -2.861030  3.013161
  S    -6.197009  0.649301  3.095586
