16  
    
  C    -4.741135 -2.392011  1.510414
  C    -4.384725  0.910791  1.796885
  C    -5.932063 -2.815536  0.795856
  C    -5.650988  0.683460  1.137659
  N    -3.722297 -2.108421  0.705495
  N    -3.426117  1.382093  0.976730
  N    -5.839209 -2.754350 -0.506346
  N    -5.549388  0.770724 -0.169123
  N    -6.409700 -2.850866  3.311164
  N    -6.148870  0.643657  3.564940
  S    -7.250781 -3.080848  1.894220
  S    -7.067938  0.444931  2.214084
  S    -4.286837 -2.302029 -0.873638
  S    -4.120062  1.297897 -0.541601
  S    -4.827604 -2.340143  3.286626
  S    -4.592686  1.090312  3.482163
