16  
    
  C    -0.318601 -0.313965  2.366840
  C    -0.363816  3.425338  2.811317
  C    -1.521416 -0.951623  1.793660
  C    -1.603454  3.098991  2.172118
  N     0.701562 -0.173786  1.520699
  N     0.659427  3.710055  2.017976
  N    -1.373665 -1.140719  0.471478
  N    -1.449967  2.814809  0.888288
  N    -1.984090 -0.647643  4.302701
  N    -2.125706  3.175382  4.755386
  S    -2.826571 -1.156562  2.951159
  S    -2.951447  2.908503  3.269582
  S     0.146639 -0.701664  0.041547
  S     0.135809  3.240189  0.497641
  S    -0.408775 -0.286979  4.090490
  S    -0.518726  3.777099  4.525291
