16  
    
  C    -5.809070 -3.079360  1.585249
  C    -6.030065  0.758317  1.400016
  C    -6.940987 -3.484740  0.801049
  C    -7.216000  0.189001  0.826655
  N    -4.663268 -2.960854  0.920522
  N    -5.256464  1.279613  0.458054
  N    -6.711770 -3.578837 -0.490630
  N    -7.240328  0.137842 -0.496238
  N    -7.733737 -3.120131  3.254159
  N    -7.673019  0.268153  3.396746
  S    -8.394126 -3.502059  1.734420
  S    -8.410996 -0.305585  2.020070
  S    -5.082211 -3.306055 -0.681148
  S    -5.891160  0.940816 -1.004128
  S    -6.083307 -2.996361  3.282268
  S    -6.135361  0.897542  3.091964
