16  
    
  C     1.121134 -0.024065  2.932024
  C     0.872894  3.825051  2.855255
  C    -0.245223 -0.351692  2.479185
  C    -0.377952  3.453382  2.341337
  N     2.019677  0.181139  1.945721
  N     1.828860  3.846473  1.967677
  N    -0.288494 -0.471268  1.138932
  N    -0.344110  3.076223  1.042739
  N    -0.482189 -0.116938  4.963983
  N    -0.710428  3.946847  4.902238
  S    -1.449820 -0.521130  3.727682
  S    -1.558907  3.360316  3.630847
  S     1.190812 -0.109308  0.547112
  S     1.218355  3.340747  0.559328
  S     1.117436  0.248317  4.683541
  S     0.936287  4.327654  4.587006
