16  
    
  C    -1.513351 -1.076353  2.694125
  C    -1.709220  2.485996  2.405853
  C    -2.608907 -1.655534  1.954182
  C    -2.923568  2.075231  1.709455
  N    -0.454508 -0.862832  1.949434
  N    -0.670507  2.773832  1.639071
  N    -2.403387 -1.732939  0.665637
  N    -2.700001  1.891985  0.409971
  N    -3.481397 -1.459063  4.355177
  N    -3.565103  2.348822  4.188920
  S    -4.132245 -1.817535  2.894761
  S    -4.268136  2.206243  2.713667
  S    -0.907788 -1.145825  0.363738
  S    -1.108724  2.329334  0.095044
  S    -1.857301 -1.239856  4.450644
  S    -1.940143  2.783567  4.094851
