16  
    
  C     1.425126  0.760183  2.960290
  C     0.992896  4.042606  2.662003
  C     0.196556  0.274089  2.309250
  C    -0.190206  3.662974  1.906291
  N     2.424178  1.026154  2.152693
  N     2.065307  4.389158  1.926259
  N     0.303040  0.107440  0.996957
  N     0.019288  3.412138  0.611998
  N    -0.312974  0.416871  4.852599
  N    -0.925122  3.803278  4.379284
  S    -1.173344  0.111823  3.522070
  S    -1.550074  3.131563  2.953977
  S     1.850997  0.632101  0.576271
  S     1.589006  4.036395  0.316799
  S     1.301817  0.763044  4.724698
  S     0.613953  4.398263  4.318068
