16  
    
  C    -2.020560 -1.095145  2.234150
  C    -1.794556  2.172688  2.083018
  C    -3.299393 -1.313953  1.610563
  C    -3.060955  1.965023  1.374933
  N    -1.022687 -1.069821  1.369129
  N    -0.784600  2.347959  1.209784
  N    -3.264520 -1.394312  0.268995
  N    -2.963227  1.888234  0.036281
  N    -3.784777 -0.915634  4.148635
  N    -3.774108  2.302916  3.799626
  S    -4.631376 -1.218297  2.771072
  S    -4.471307  1.744642  2.382565
  S    -1.660467 -1.178032 -0.149927
  S    -1.374745  2.123461 -0.295245
  S    -2.148271 -0.703110  3.960325
  S    -2.108556  2.415923  3.725226
