16  
    
  C    -5.745779 -3.149537  1.596748
  C    -6.051301  0.733333  1.364736
  C    -6.932551 -3.424341  0.812728
  C    -7.225763  0.162647  0.846397
  N    -4.638981 -2.915403  0.902167
  N    -5.211530  1.260408  0.460997
  N    -6.726149 -3.621165 -0.488033
  N    -7.224005  0.141161 -0.478819
  N    -7.785219 -3.086672  3.213542
  N    -7.701151  0.259003  3.391805
  S    -8.411787 -3.466699  1.712943
  S    -8.445641 -0.261665  2.002792
  S    -5.089304 -3.299404 -0.723801
  S    -5.859960  0.972562 -1.053644
  S    -6.102538 -3.021671  3.333665
  S    -6.143418  0.884291  3.091466
