16  
    
  C     2.428014  1.105662  3.352050
  C     2.836218  5.378405  3.860983
  C     1.310696  0.649293  2.565356
  C     1.704956  4.676071  3.347943
  N     3.567406  1.249627  2.710016
  N     3.845112  5.503535  3.038694
  N     1.554135  0.352213  1.279101
  N     1.842694  4.248139  2.111224
  N     0.521462  0.959317  4.989244
  N     1.201803  5.301979  5.815452
  S    -0.070099  0.503955  3.592897
  S     0.387736  4.776214  4.413607
  S     3.163973  0.778875  1.094949
  S     3.375393  4.756294  1.624120
  S     2.132078  1.388213  5.018021
  S     2.820430  5.732426  5.532003
