16  
    
  C     2.496348  1.100530  3.311020
  C     2.975951  5.362381  3.763808
  C     1.349183  0.606508  2.579589
  C     1.668797  5.066087  3.237755
  N     3.523241  1.300885  2.501064
  N     3.969371  5.172881  2.903412
  N     1.544958  0.429126  1.279515
  N     1.623295  4.772246  1.942759
  N     0.730297  0.687913  5.068723
  N     1.317524  5.484940  5.760903
  S     0.034426  0.243618  3.612932
  S     0.400749  5.436814  4.372788
  S     3.124895  0.906875  1.017518
  S     3.195558  4.624542  1.513853
  S     2.245556  1.316264  5.031743
  S     2.968468  5.671656  5.489874
