16  
    
  C    -2.825435 -1.733502  2.021025
  C    -2.405429  2.245672  1.987395
  C    -4.055037 -2.111350  1.347621
  C    -3.682921  1.930803  1.456735
  N    -1.946721 -1.247608  1.142620
  N    -1.399898  1.983804  1.156359
  N    -4.029992 -2.169547 -0.006101
  N    -3.709733  1.615122  0.170125
  N    -4.611009 -2.038253  3.912165
  N    -4.162837  2.213274  3.948137
  S    -5.287291 -2.585284  2.457317
  S    -5.064009  2.099804  2.535519
  S    -2.540979 -1.613268 -0.409535
  S    -2.172226  1.578470 -0.304079
  S    -3.049184 -1.592840  3.795470
  S    -2.466983  2.327737  3.713714
