16  
    
  C    -3.789224 -2.400777  1.611232
  C    -3.340243  1.644810  1.597414
  C    -5.105337 -2.486632  0.998363
  C    -4.537594  1.159017  0.999819
  N    -2.730955 -2.311602  0.729182
  N    -2.363215  1.902561  0.752682
  N    -5.020316 -2.146226 -0.282223
  N    -4.479389  0.853279 -0.304397
  N    -5.607142 -2.737439  3.522294
  N    -5.064907  1.463059  3.515697
  S    -6.434660 -2.722352  2.091990
  S    -5.839591  0.944489  2.119181
  S    -3.412308 -2.094656 -0.768567
  S    -2.962413  1.408727 -0.759263
  S    -3.928267 -2.600301  3.348747
  S    -3.593511  2.165158  3.230778
