16  
    
  C    -4.176577 -2.401394  1.607156
  C    -4.265867  1.630561  1.969781
  C    -5.385650 -2.918848  1.043823
  C    -5.431502  1.122677  1.288782
  N    -3.156381 -2.330312  0.735029
  N    -3.191938  1.753562  1.166346
  N    -5.381974 -3.243496 -0.232442
  N    -5.205029  0.630001  0.036566
  N    -5.903059 -2.425059  3.479394
  N    -6.191724  1.577423  3.732752
  S    -6.753051 -2.771623  2.077381
  S    -6.831724  0.997937  2.319891
  S    -3.838668 -2.802671 -0.696412
  S    -3.573136  1.067588 -0.273060
  S    -4.347909 -2.004283  3.232172
  S    -4.609972  2.027591  3.636184
