16  
    
  C     1.493928  1.064760  3.196510
  C     1.648758  4.598541  3.391769
  C     0.271694  0.556011  2.588298
  C     0.405525  4.108681  2.782869
  N     2.528384  1.235620  2.399753
  N     2.705181  4.478056  2.561828
  N     0.395154  0.311585  1.272444
  N     0.450465  3.843114  1.467014
  N    -0.305755  0.923465  5.005265
  N     0.006675  4.594753  5.377048
  S    -1.042174  0.361072  3.729106
  S    -0.831302  4.291658  3.961216
  S     1.939357  0.774867  0.913392
  S     2.049412  4.001835  1.105395
  S     1.323768  1.236640  4.881716
  S     1.644185  4.860015  5.096620
