16  
    
  C     1.472589  0.814633  3.430439
  C     1.246700  4.610632  3.212533
  C     0.206738  0.367731  2.907736
  C    -0.017916  4.209899  2.746924
  N     2.470730  0.817676  2.531182
  N     2.148201  4.724436  2.278759
  N     0.261083  0.072489  1.637662
  N    -0.043044  3.967053  1.440053
  N    -0.228457  0.934094  5.319970
  N    -0.164434  4.198036  5.299707
  S    -1.142392  0.484862  4.034334
  S    -1.237387  3.950393  3.966959
  S     1.813134  0.371848  1.092514
  S     1.466097  4.382201  0.846410
  S     1.379160  1.249399  5.125788
  S     1.385932  4.659798  4.935782
