16  
    
  C    -2.668130 -1.302295  2.163628
  C    -2.578159  2.283194  2.292343
  C    -3.873832 -1.826366  1.523774
  C    -3.729806  1.904080  1.589743
  N    -1.613649 -1.199415  1.359600
  N    -1.640778  2.769426  1.480957
  N    -3.761594 -1.933588  0.201255
  N    -3.624056  1.806920  0.256470
  N    -4.394263 -1.533484  4.060076
  N    -4.267187  1.946948  4.086234
  S    -5.232009 -2.042896  2.702528
  S    -5.045324  1.597077  2.686997
  S    -2.222314 -1.519214 -0.173652
  S    -2.095534  2.427524 -0.043834
  S    -2.794349 -1.279592  3.868376
  S    -2.712000  2.424630  4.008509
