16  
    
  C     2.010627  1.022525  3.192761
  C     2.131486  4.458533  2.929583
  C     0.794065  0.685613  2.543733
  C     0.954969  3.889300  2.326430
  N     3.070435  1.108361  2.392400
  N     3.257871  4.540816  2.224250
  N     0.856054  0.611144  1.228596
  N     1.153278  3.642663  1.027188
  N     0.364688  0.874207  5.139491
  N     0.430352  4.222507  4.752284
  S    -0.460338  0.441212  3.664273
  S    -0.417838  3.896382  3.359825
  S     2.532965  0.836906  0.857289
  S     2.752333  4.159176  0.663174
  S     1.942160  1.433792  4.839175
  S     1.986056  4.559101  4.682534
