16  
    
  C    -1.541482 -1.074856  2.677781
  C    -1.699865  2.445034  2.398289
  C    -2.628902 -1.662418  1.958774
  C    -2.927142  2.095986  1.711150
  N    -0.447648 -0.864685  1.946991
  N    -0.677845  2.784879  1.643591
  N    -2.420989 -1.729523  0.650894
  N    -2.726869  1.902314  0.424764
  N    -3.487328 -1.470641  4.371838
  N    -3.563561  2.341108  4.188297
  S    -4.131490 -1.805407  2.899092
  S    -4.281562  2.207636  2.720995
  S    -0.920798 -1.148231  0.354505
  S    -1.121370  2.335777  0.093468
  S    -1.861783 -1.229476  4.459766
  S    -1.942931  2.772903  4.092813
