16  
    
  C    -0.131189 -0.206446  2.537793
  C    -0.342232  3.328384  2.491674
  C    -1.311736 -0.743533  1.816260
  C    -1.618364  2.979587  1.977218
  N     0.865173  0.116817  1.694860
  N     0.621913  3.509764  1.594532
  N    -1.021062 -1.100898  0.595590
  N    -1.607240  2.647303  0.698765
  N    -2.065435 -0.654846  4.297003
  N    -2.006732  3.161808  4.454341
  S    -2.700152 -1.084538  2.799487
  S    -2.915637  2.957957  3.125379
  S     0.473740 -0.605429  0.230758
  S    -0.096401  3.089380  0.131921
  S    -0.505319 -0.080326  4.227491
  S    -0.381367  3.392252  4.281712
