16  
    
  C     1.905495  0.474226  3.074331
  C     1.870286  4.147426  3.293430
  C     0.582491  0.178907  2.556537
  C     0.588134  4.117250  2.638408
  N     2.822995  0.599273  2.106412
  N     2.879804  4.288574  2.413752
  N     0.496843  0.117519  1.249045
  N     0.631153  3.867449  1.307886
  N     0.230110  0.257434  5.153304
  N     0.182416  4.048853  5.153216
  S    -0.678338  0.164561  3.741961
  S    -0.677473  3.992422  3.764858
  S     2.074867  0.416693  0.633017
  S     2.221280  4.221476  0.899429
  S     1.837348  0.713792  4.773158
  S     1.780204  4.189114  5.049685
