16  
    
  C     0.659113  0.260777  3.023079
  C     0.718154  3.826163  2.857285
  C    -0.617820  0.009487  2.410908
  C    -0.488686  3.340424  2.294032
  N     1.700126  0.379511  2.171352
  N     1.717326  3.982636  1.953387
  N    -0.589436 -0.253610  1.105950
  N    -0.517053  3.313850  0.977404
  N    -1.037993  0.278823  4.917818
  N    -1.007551  3.587167  4.769138
  S    -1.915017 -0.019332  3.534057
  S    -1.873384  3.229993  3.418114
  S     1.029378  0.004182  0.704453
  S     1.026220  3.679810  0.448865
  S     0.602782  0.479689  4.761913
  S     0.639937  3.927002  4.572245
