16  
    
  C    -4.907605 -2.567349  1.938015
  C    -5.375156  0.946334  1.779317
  C    -6.102810 -3.053452  1.317444
  C    -6.589431  0.713099  1.062399
  N    -3.840161 -2.541872  1.149033
  N    -4.369236  1.070457  0.919497
  N    -6.004611 -3.186952 -0.005688
  N    -6.446525  0.498965 -0.252067
  N    -6.792701 -2.617499  3.788832
  N    -7.146502  1.018194  3.597008
  S    -7.535405 -3.027962  2.353420
  S    -7.927588  0.626322  2.167170
  S    -4.410788 -2.993133 -0.400639
  S    -4.895285  0.828138 -0.588248
  S    -5.197587 -2.269316  3.646106
  S    -5.523584  1.343070  3.459519
