16  
    
  C    -3.038118 -1.247458  2.168905
  C    -3.136642  1.702826  2.051493
  C    -4.235570 -1.773537  1.560423
  C    -4.364982  1.412382  1.339152
  N    -1.980565 -1.235836  1.365412
  N    -2.149472  1.985130  1.213838
  N    -4.148347 -1.889946  0.225907
  N    -4.270359  1.337786  0.045599
  N    -4.794050 -1.639266  4.053066
  N    -5.091292  1.592025  3.776414
  S    -5.544353 -1.950738  2.616855
  S    -5.771831  1.253715  2.272448
  S    -2.576334 -1.565353 -0.200709
  S    -2.695706  1.728589 -0.310286
  S    -3.241653 -1.104515  3.901109
  S    -3.434852  1.947436  3.681332
