16  
    
  C     3.177525  1.642688  3.668556
  C     3.227023  5.091045  3.414488
  C     1.986494  1.101383  3.024166
  C     1.995270  4.700896  2.713770
  N     4.271415  1.774549  2.919790
  N     4.212414  5.389514  2.557992
  N     2.161734  0.764709  1.748494
  N     2.179657  4.455593  1.412174
  N     1.340305  1.486228  5.525341
  N     1.323304  4.703892  5.212606
  S     0.567720  1.094022  4.084419
  S     0.647863  4.318030  3.755442
  S     3.743237  1.178711  1.357251
  S     3.719342  4.816570  1.065949
  S     2.951749  2.015077  5.361751
  S     2.902494  5.369402  5.186608
