16  
    
  C     2.967253  1.497609  3.399478
  C     2.963539  5.114851  3.202843
  C     1.716519  1.165155  2.798603
  C     1.806869  4.488193  2.622794
  N     4.003602  1.703614  2.589562
  N     4.034324  5.206119  2.365386
  N     1.816980  1.142097  1.481107
  N     1.856517  4.407883  1.286027
  N     1.244994  0.978624  5.255832
  N     1.160203  4.993395  5.083862
  S     0.400491  0.820302  3.826117
  S     0.480807  4.391352  3.712590
  S     3.409170  1.400979  1.072086
  S     3.402047  4.780326  0.841032
  S     2.766314  1.589409  5.134952
  S     2.717395  5.398914  4.959483
