16  
    
  C     0.832969 -0.013000  2.789965
  C     0.502799  3.495927  2.944046
  C    -0.467399 -0.248813  2.206095
  C    -0.886824  3.593517  2.394530
  N     1.822131  0.084106  1.917217
  N     1.474646  3.886933  2.125252
  N    -0.429859 -0.322232  0.869137
  N    -0.807728  3.738226  1.061770
  N    -0.824876 -0.204359  4.833200
  N    -1.170835  3.008291  4.896008
  S    -1.681209 -0.424817  3.451016
  S    -2.144371  3.184512  3.508788
  S     1.156422 -0.122322  0.396276
  S     0.765711  3.919004  0.611820
  S     0.805426  0.013153  4.580833
  S     0.439452  3.354413  4.668110
