16  
    
  C    -1.978312 -1.053422  2.258261
  C    -2.304415  2.473190  1.942067
  C    -3.149238 -1.619894  1.597925
  C    -3.548756  2.068886  1.422301
  N    -0.960425 -0.847948  1.414657
  N    -1.316304  2.529417  1.034871
  N    -3.044323 -1.712126  0.280874
  N    -3.570456  1.805719  0.121362
  N    -3.883940 -1.071735  3.998600
  N    -3.955758  2.394383  3.894323
  S    -4.560703 -1.604357  2.590804
  S    -4.880899  2.016369  2.593275
  S    -1.520070 -1.251966 -0.130007
  S    -2.030213  2.126523 -0.383027
  S    -2.225654 -0.807911  4.013639
  S    -2.390684  2.819940  3.617848
