16  
    
  C    -4.241706 -2.414911  1.512360
  C    -4.278949  1.467832  2.026775
  C    -5.443622 -3.009579  0.908334
  C    -5.466619  0.970302  1.359906
  N    -3.201590 -2.360244  0.695925
  N    -3.277776  1.757939  1.216240
  N    -5.339743 -3.210084 -0.420983
  N    -5.257424  0.616591  0.081743
  N    -5.984428 -2.572978  3.429785
  N    -6.132723  1.491604  3.712570
  S    -6.829658 -3.032402  2.055924
  S    -6.870275  0.889361  2.322199
  S    -3.730886 -2.809271 -0.816948
  S    -3.714285  1.245551 -0.260892
  S    -4.412021 -2.159202  3.254090
  S    -4.538368  1.978212  3.735943
