16  
    
  C     2.452720  1.171025  3.333551
  C     2.858875  5.215041  3.856973
  C     1.316709  0.632444  2.611003
  C     1.637650  4.689578  3.268998
  N     3.589476  1.299843  2.648132
  N     3.830648  5.415117  2.943762
  N     1.654742  0.377785  1.353824
  N     1.894145  4.106907  2.069914
  N     0.561139  0.915863  5.092837
  N     1.230766  5.124801  5.756774
  S    -0.151939  0.464040  3.564134
  S     0.315374  4.733401  4.496824
  S     3.238353  0.788209  1.143738
  S     3.351629  4.757345  1.544608
  S     2.163989  1.387279  5.000357
  S     2.769092  5.725824  5.523068
