16  
    
  C    -2.457244 -1.157651  2.148758
  C    -2.744681  2.658276  2.327298
  C    -3.552244 -1.775401  1.456139
  C    -3.908958  1.996179  1.720773
  N    -1.428305 -0.827104  1.415151
  N    -1.777994  3.029865  1.489544
  N    -3.383606 -1.877623  0.135594
  N    -3.701956  1.807714  0.437910
  N    -4.110480 -1.668086  4.003350
  N    -4.380410  2.110687  4.243043
  S    -4.835470 -2.189031  2.610762
  S    -5.035903  1.352558  2.905459
  S    -1.875052 -1.224927 -0.138885
  S    -2.235962  2.446096 -0.002119
  S    -2.624032 -0.928039  3.854557
  S    -2.873212  2.771274  4.062737
