16  
    
  C    -4.717200 -2.603872  1.639126
  C    -4.874958  1.285904  1.458657
  C    -5.962235 -3.058003  1.098906
  C    -5.968252  0.657507  0.830814
  N    -3.792387 -2.306155  0.745486
  N    -3.792513  1.389352  0.704193
  N    -5.954279 -3.202752 -0.228296
  N    -5.766953  0.470431 -0.483340
  N    -6.322595 -2.789462  3.680238
  N    -6.595192  0.753185  3.353965
  S    -7.212350 -2.989465  2.306606
  S    -7.242374  0.295294  1.904350
  S    -4.432726 -2.716147 -0.742199
  S    -4.234497  0.846542 -0.752590
  S    -4.762248 -2.180313  3.343405
  S    -4.960032  1.254230  3.215048
