16  
    
  C     2.494844  1.112220  3.302738
  C     2.987326  5.291446  3.840527
  C     1.380297  0.574981  2.585148
  C     1.670960  5.179554  3.244578
  N     3.563174  1.316151  2.552989
  N     3.973887  5.180653  2.945619
  N     1.511041  0.345194  1.280257
  N     1.649357  4.658426  2.005287
  N     0.691258  0.677173  5.092290
  N     1.295274  5.542233  5.755467
  S     0.046194  0.294075  3.577241
  S     0.434208  5.406229  4.398991
  S     3.050102  0.833333  0.972035
  S     3.227551  4.670704  1.470264
  S     2.217474  1.334847  4.999267
  S     2.915050  5.746415  5.545703
