16  
    
  C     1.005507  0.040915  2.956353
  C     0.955614  4.137410  2.705781
  C    -0.324361 -0.206867  2.395550
  C    -0.211370  3.401093  2.370496
  N     1.964892  0.156636  2.041782
  N     1.964070  3.960397  1.775165
  N    -0.343483 -0.274666  1.086522
  N    -0.238538  2.999503  1.097681
  N    -0.583706 -0.107544  4.983590
  N    -0.721982  4.248268  4.665780
  S    -1.484809 -0.433528  3.611649
  S    -1.494888  3.393161  3.519653
  S     1.236302  0.003487  0.612769
  S     1.269044  3.248729  0.497572
  S     1.047890  0.156563  4.676085
  S     0.916340  4.551435  4.356324
