16  
    
  C     1.575998  0.705384  2.823122
  C     0.838551  4.109619  2.426411
  C     0.330536  0.281770  2.182320
  C    -0.305773  3.432778  1.900669
  N     2.613927  0.836603  1.984187
  N     1.956001  4.265027  1.675975
  N     0.365538  0.247425  0.861868
  N    -0.183421  3.088095  0.614728
  N    -0.195568  0.434830  4.798654
  N    -0.896803  3.785175  4.387838
  S    -0.868627 -0.036075  3.393342
  S    -1.607509  3.127894  3.023828
  S     1.943955  0.611750  0.418147
  S     1.339289  3.655452  0.185688
  S     1.411855  0.896651  4.579587
  S     0.731326  4.170806  4.135022
