16  
    
  C    -1.290394 -0.785383  1.889437
  C    -1.452095  3.434823  2.019210
  C    -2.584641 -1.211101  1.485404
  C    -2.546575  2.669561  1.457243
  N    -0.453684 -0.518709  0.872628
  N    -0.443789  3.717994  1.185929
  N    -2.664749 -1.582365  0.216352
  N    -2.352803  2.518534  0.137522
  N    -2.699997 -1.078281  4.027110
  N    -3.028338  2.806362  3.974696
  S    -3.711258 -1.482251  2.805953
  S    -3.715911  2.211973  2.562160
  S    -1.212621 -1.082131 -0.509185
  S    -0.921795  3.169046 -0.302359
  S    -1.230037 -0.426515  3.603745
  S    -1.536713  3.577420  3.769517
