16  
    
  C     3.016686  1.442738  3.324300
  C     3.022836  5.071412  3.296326
  C     1.734996  1.180797  2.666750
  C     1.814581  4.783191  2.565898
  N     4.117460  1.621588  2.591356
  N     4.117013  5.204014  2.539961
  N     1.898800  1.193303  1.350583
  N     2.039160  4.544955  1.290321
  N     1.191368  1.437734  5.229932
  N     1.103674  5.037813  5.097687
  S     0.384864  1.068158  3.800017
  S     0.460005  4.612951  3.635029
  S     3.494867  1.416486  1.005767
  S     3.666533  4.781279  0.990749
  S     2.875510  1.602038  5.045624
  S     2.761992  5.263239  5.032692
