16  
    
  C    -3.685809 -2.477317  1.696689
  C    -3.456517  1.824008  1.670319
  C    -4.958424 -2.679481  1.051706
  C    -4.577072  1.083425  1.098324
  N    -2.610055 -2.160843  0.923546
  N    -2.385292  1.908821  0.901836
  N    -4.814215 -2.822635 -0.256697
  N    -4.422359  0.817684 -0.218307
  N    -5.476702 -2.832737  3.621933
  N    -5.141602  1.500703  3.516755
  S    -6.312180 -2.902066  2.183882
  S    -5.819082  0.800554  2.191642
  S    -3.216096 -2.499608 -0.633858
  S    -2.880911  1.286382 -0.559163
  S    -3.843388 -2.623067  3.453755
  S    -3.626304  2.091236  3.364036
