16  
    
  C     1.013704  0.035102  2.930274
  C     0.993406  4.113259  2.707629
  C    -0.301037 -0.156436  2.394473
  C    -0.200932  3.388941  2.324583
  N     1.980112  0.183431  2.059683
  N     1.925215  4.012306  1.748522
  N    -0.325499 -0.242178  1.054118
  N    -0.210057  2.976734  1.066892
  N    -0.608431 -0.118574  4.956778
  N    -0.725988  4.280936  4.642653
  S    -1.491767 -0.406212  3.631133
  S    -1.471429  3.403770  3.493700
  S     1.249226  0.008837  0.615297
  S     1.284444  3.241578  0.499722
  S     1.001702  0.148555  4.679638
  S     0.911298  4.600710  4.343746
