16  
    
  C    -4.779798 -2.369064  1.805799
  C    -5.047829  1.158977  1.757403
  C    -6.034192 -2.803232  1.192067
  C    -6.117378  0.439530  1.116382
  N    -3.816826 -2.056919  0.926156
  N    -3.934807  1.245023  0.988989
  N    -5.930071 -3.047135 -0.096643
  N    -5.895125  0.236702 -0.192117
  N    -6.385215 -2.954834  3.727965
  N    -6.826668  0.940823  3.539904
  S    -7.272633 -3.256436  2.348397
  S    -7.440040  0.130515  2.198784
  S    -4.387389 -2.597867 -0.559779
  S    -4.404791  0.779863 -0.497307
  S    -4.926530 -2.167005  3.473155
  S    -5.242289  1.512851  3.443266
