16  
    
  C    -1.324719 -0.673598  1.847966
  C    -1.299155  3.342260  2.084777
  C    -2.689708 -1.126669  1.457048
  C    -2.390703  2.620428  1.523000
  N    -0.507113 -0.596568  0.828712
  N    -0.343277  3.628764  1.206631
  N    -2.799220 -1.409159  0.171389
  N    -2.410684  2.711204  0.196341
  N    -2.703465 -0.737639  3.962351
  N    -2.882885  2.880523  4.075784
  S    -3.663696 -1.494420  2.866014
  S    -3.603484  2.220051  2.705776
  S    -1.303376 -1.094073 -0.515663
  S    -0.938575  3.260234 -0.306080
  S    -1.195379 -0.246827  3.484765
  S    -1.410787  3.664461  3.790994
