16  
    
  C     0.110585 -0.033379  2.660621
  C     0.036379  3.661481  2.615749
  C    -1.119089 -0.572001  2.108926
  C    -1.021753  2.861616  2.058493
  N     1.053744  0.191767  1.766029
  N     1.069141  3.823795  1.775516
  N    -1.099440 -0.674724  0.803143
  N    -0.974909  2.801659  0.712181
  N    -1.603957 -0.357221  4.634264
  N    -1.787117  3.380451  4.417815
  S    -2.417105 -0.910062  3.267209
  S    -2.370522  2.567434  3.089004
  S     0.380204 -0.174029  0.294553
  S     0.582489  3.177430  0.319961
  S    -0.155664  0.396884  4.339877
  S    -0.285229  4.041193  4.276359
