16  
    
  C     2.500150  1.055315  3.295462
  C     2.963638  5.507207  3.908335
  C     1.280054  0.617276  2.609836
  C     1.739547  4.973749  3.330113
  N     3.581173  1.205440  2.551600
  N     4.018530  5.381725  3.119666
  N     1.457506  0.391887  1.318056
  N     1.861603  4.533090  2.094205
  N     0.490939  1.180264  4.916778
  N     1.105376  5.762436  5.756283
  S    -0.149433  0.406597  3.625868
  S     0.394201  4.886183  4.480671
  S     3.032270  0.742908  0.947441
  S     3.429619  4.819927  1.583566
  S     2.155003  1.330284  4.975262
  S     2.779148  5.883657  5.645927
