16  
    
  C     2.605831  1.103426  3.388705
  C     2.944716  5.235676  3.646885
  C     1.454237  0.695325  2.674357
  C     1.605972  5.117326  3.098212
  N     3.653670  1.424102  2.608575
  N     3.913657  4.861422  2.810255
  N     1.644802  0.680293  1.359253
  N     1.583655  4.771939  1.794874
  N     0.684232  0.827992  5.123546
  N     1.326575  5.514080  5.690174
  S     0.127263  0.238603  3.696858
  S     0.396668  5.376273  4.342273
  S     3.213412  1.203772  1.118341
  S     3.176088  4.692479  1.344052
  S     2.298220  1.122120  5.121165
  S     2.953062  5.440338  5.417897
