16  
    
  C    -5.799630 -3.017503  1.540110
  C    -6.073548  0.755226  1.345711
  C    -6.950177 -3.491969  0.776546
  C    -7.294821  0.314953  0.723961
  N    -4.668114 -2.962850  0.823943
  N    -5.159947  1.185546  0.496868
  N    -6.745660 -3.608932 -0.519928
  N    -7.186116  0.265607 -0.603449
  N    -7.819077 -3.145173  3.188495
  N    -7.710908  0.235527  3.224213
  S    -8.404401 -3.384222  1.645832
  S    -8.530442 -0.005963  1.817900
  S    -5.147079 -3.244341 -0.775664
  S    -5.723454  0.910410 -0.988955
  S    -6.166275 -3.052037  3.243978
  S    -6.102820  0.799476  3.096545
