16  
    
  C     0.851690 -0.116239  2.789114
  C     0.466158  3.567910  2.966279
  C    -0.472119 -0.202048  2.228090
  C    -0.807574  3.362280  2.328215
  N     1.828059 -0.045042  1.915875
  N     1.469553  3.746018  2.117204
  N    -0.518015 -0.215318  0.901868
  N    -0.861373  3.763492  1.054082
  N    -0.826304 -0.240898  4.802217
  N    -1.252152  3.008104  4.817108
  S    -1.733594 -0.562673  3.434999
  S    -2.114828  3.102802  3.450750
  S     1.093708 -0.143413  0.398522
  S     0.762769  3.918165  0.619268
  S     0.796519 -0.046005  4.527016
  S     0.377744  3.374994  4.708416
