16  
    
  C     1.554440  1.011408  3.211318
  C     1.884445  4.632592  3.310719
  C     0.349183  0.550478  2.511997
  C     0.700128  4.054279  2.721619
  N     2.610040  1.157861  2.436590
  N     2.927237  4.671966  2.459421
  N     0.495199  0.424997  1.206196
  N     0.795894  3.660389  1.474690
  N    -0.305404  0.659941  4.973106
  N     0.130729  4.550741  5.224586
  S    -0.930318  0.127829  3.623570
  S    -0.714937  4.158025  3.810401
  S     2.083320  0.755648  0.906428
  S     2.303308  4.104216  0.997992
  S     1.270520  1.236615  4.947212
  S     1.751429  4.861572  5.046805
