16  
    
  C    -1.435867 -1.105330  2.514322
  C    -1.463840  2.591485  2.265150
  C    -2.558153 -1.553254  1.671029
  C    -2.552735  1.970706  1.604895
  N    -0.336431 -0.786822  1.867273
  N    -0.408420  2.932721  1.532038
  N    -2.202687 -1.661195  0.418212
  N    -2.346474  1.755418  0.323980
  N    -3.459885 -1.520860  4.178380
  N    -3.428057  2.452349  3.961608
  S    -3.964044 -1.940572  2.629714
  S    -3.965313  1.744709  2.576105
  S    -0.664296 -1.091565  0.278203
  S    -0.796726  2.329463  0.000198
  S    -1.815507 -0.988919  4.240790
  S    -1.878168  3.024462  3.921728
