16  
    
  C     2.091336  0.821390  3.081795
  C     2.145627  4.429097  3.042903
  C     0.784898  0.675485  2.445739
  C     0.955821  4.017077  2.350041
  N     3.118658  0.567210  2.296615
  N     3.185315  4.678276  2.227106
  N     0.867854  0.420504  1.147614
  N     1.204128  3.567049  1.117634
  N     0.261655  1.077895  4.973921
  N     0.299286  4.448660  4.763036
  S    -0.529535  0.557114  3.556375
  S    -0.409515  3.969151  3.314999
  S     2.420869  0.218085  0.832473
  S     2.752983  4.025561  0.737764
  S     1.966195  1.154023  4.772270
  S     1.877380  4.814692  4.768100
