16  
    
  C     2.583683  1.085366  3.314037
  C     2.614847  5.096061  3.626338
  C     1.410527  0.603444  2.574773
  C     1.410537  4.531327  3.105409
  N     3.662622  1.319463  2.594308
  N     3.600041  5.158427  2.740766
  N     1.698192  0.377689  1.287029
  N     1.513339  4.200109  1.821745
  N     0.675504  1.037612  4.971917
  N     0.967261  4.953903  5.673208
  S    -0.074632  0.487987  3.576717
  S     0.224865  4.169488  4.387199
  S     3.248935  0.852608  1.015417
  S     3.064781  4.579848  1.314162
  S     2.254328  1.374112  4.974210
  S     2.577156  5.491124  5.292545
