16  
    
  C    -5.095144 -2.376109  1.868953
  C    -5.413859  1.038906  1.595611
  C    -6.331007 -2.860640  1.315968
  C    -6.669643  0.881096  0.992133
  N    -4.027997 -2.518438  1.052980
  N    -4.371862  1.081443  0.760229
  N    -6.265464 -3.146951  0.017954
  N    -6.553439  0.683493 -0.303793
  N    -6.878767 -2.098986  3.726185
  N    -7.186080  1.082629  3.510590
  S    -7.710486 -2.755807  2.394918
  S    -8.069496  0.898650  2.037736
  S    -4.667788 -3.035857 -0.450203
  S    -5.032245  0.885154 -0.724465
  S    -5.227547 -2.173574  3.630251
  S    -5.518091  1.302817  3.291491
