16  
    
  C    -4.181675 -2.322027  1.659077
  C    -4.319878  1.771270  1.909799
  C    -5.434990 -2.658111  1.034615
  C    -5.447430  1.094446  1.303949
  N    -3.211619 -2.289554  0.768364
  N    -3.201939  1.706069  1.201253
  N    -5.345812 -3.036107 -0.263904
  N    -5.247144  0.703980  0.042893
  N    -5.984202 -2.143360  3.548376
  N    -6.059595  1.473540  3.712468
  S    -6.794741 -2.723830  2.179753
  S    -6.830509  0.986575  2.255789
  S    -3.772227 -2.799858 -0.727037
  S    -3.617050  0.971533 -0.259480
  S    -4.301685 -1.865455  3.351547
  S    -4.500868  2.152572  3.577542
