16  
    
  C     2.641756  1.119979  3.491925
  C     2.962498  5.158016  3.652521
  C     1.501156  0.697544  2.693576
  C     1.644765  4.968127  3.117081
  N     3.660219  1.441858  2.722524
  N     3.911284  4.825788  2.757047
  N     1.633167  0.679717  1.370397
  N     1.567249  4.851919  1.774447
  N     0.714769  0.838684  5.101863
  N     1.270667  5.549812  5.702848
  S     0.156966  0.298747  3.654613
  S     0.404726  5.347845  4.285773
  S     3.187379  1.265293  1.128551
  S     3.179262  4.723028  1.299366
  S     2.348882  1.091939  5.206890
  S     2.928576  5.405504  5.410572
