16  
    
  C    -1.953538 -1.087217  2.029078
  C    -2.603398  2.688933  2.009268
  C    -3.191568 -1.568273  1.390302
  C    -3.787474  2.093976  1.518691
  N    -1.039051 -0.782681  1.148453
  N    -1.560086  2.722468  1.174017
  N    -3.061426 -1.910940  0.125454
  N    -3.743363  1.889453  0.196325
  N    -3.582216 -1.831551  3.997337
  N    -4.318109  2.489592  4.000436
  S    -4.346335 -2.139557  2.563503
  S    -5.089828  1.902204  2.622907
  S    -1.588142 -1.318249 -0.376315
  S    -2.175858  2.129548 -0.261209
  S    -2.181445 -0.861678  3.806766
  S    -2.672865  2.878142  3.773821
