16  
    
  C     1.376664  0.897135  3.247880
  C     1.138733  4.495902  3.061115
  C     0.105358  0.416482  2.747217
  C     0.002614  3.914285  2.422307
  N     2.314491  0.883535  2.338524
  N     2.210207  4.605101  2.261388
  N     0.110114 -0.002751  1.485744
  N     0.118095  3.934214  1.101635
  N    -0.304857  0.873554  5.283117
  N    -0.655247  4.114075  4.845960
  S    -1.168967  0.363928  3.908718
  S    -1.402746  3.643384  3.367514
  S     1.677316  0.223358  0.960442
  S     1.660351  4.413471  0.698383
  S     1.360692  1.205602  5.002403
  S     0.960700  4.415936  4.754648
