16  
    
  C     2.299131  0.744026  3.537342
  C     1.876111  5.037954  3.161326
  C     0.996200  0.623609  2.925811
  C     0.781950  4.567941  2.323538
  N     3.308111  0.724013  2.661975
  N     2.923168  5.386264  2.400579
  N     1.054282  0.612267  1.576167
  N     1.096343  4.272938  1.055897
  N     0.650540  1.086112  5.437743
  N    -0.036301  4.828669  4.828967
  S    -0.278873  0.526502  4.195667
  S    -0.566830  4.086198  3.370363
  S     2.699697  0.650459  1.158017
  S     2.699732  4.823710  0.850859
  S     2.266650  1.135076  5.224189
  S     1.643591  5.292972  4.853414
