16  
    
  C    -5.863873 -2.694384  1.226593
  C    -5.674794  0.813976  1.543312
  C    -7.064090 -3.126832  0.571879
  C    -6.838615  0.407341  0.864562
  N    -4.774322 -2.552643  0.487106
  N    -4.591428  0.892689  0.742137
  N    -6.981611 -3.146557 -0.755169
  N    -6.650176  0.307490 -0.441248
  N    -7.391577 -3.285680  3.195852
  N    -7.431239  0.485168  3.331564
  S    -8.292095 -3.457714  1.822798
  S    -8.210511  0.296744  1.884110
  S    -5.323653 -2.840678 -1.086949
  S    -5.058891  0.570531 -0.807935
  S    -5.984916 -2.493645  2.912298
  S    -5.931618  1.105356  3.290498
