16  
    
  C    -2.643866 -1.647271  1.895314
  C    -3.136540  1.911625  1.772583
  C    -3.943754 -1.960574  1.334978
  C    -4.276417  1.371765  1.007996
  N    -1.562839 -1.813652  1.128756
  N    -2.131109  2.365457  1.006690
  N    -3.841153 -2.145152  0.018163
  N    -3.978168  1.192964 -0.272790
  N    -4.310798 -1.655982  3.861465
  N    -5.041423  1.563685  3.437113
  S    -5.222051 -1.878805  2.508272
  S    -5.676004  1.059848  1.987639
  S    -2.236636 -2.067936 -0.406538
  S    -2.461479  1.871388 -0.542818
  S    -2.681383 -1.480283  3.617035
  S    -3.486259  2.217413  3.419917
