16  
    
  C    -1.410712 -0.987363  2.441906
  C    -1.500642  2.799890  2.137012
  C    -2.498293 -1.480235  1.569629
  C    -2.542628  2.060662  1.462929
  N    -0.391724 -0.646064  1.712516
  N    -0.511914  3.134680  1.317132
  N    -2.223687 -1.579142  0.294257
  N    -2.234002  1.651200  0.236367
  N    -3.375590 -1.446443  4.057285
  N    -3.380659  2.443293  3.844863
  S    -3.938492 -1.758012  2.467793
  S    -3.926533  1.638358  2.503643
  S    -0.694560 -1.053614  0.165202
  S    -0.817887  2.403595 -0.170750
  S    -1.746748 -0.963835  4.129073
  S    -1.847314  3.031577  3.782656
