16  
    
  C     2.584282  1.158504  3.339188
  C     2.681443  5.220972  3.641543
  C     1.454230  0.583770  2.645983
  C     1.472695  4.537907  3.174377
  N     3.670556  1.371540  2.609539
  N     3.730705  5.106260  2.843950
  N     1.694817  0.320024  1.383204
  N     1.515878  4.245606  1.892180
  N     0.571724  0.918659  4.982496
  N     1.081270  4.956849  5.640020
  S    -0.067341  0.526381  3.526974
  S     0.268819  4.215437  4.365876
  S     3.238443  0.843356  1.037637
  S     3.067456  4.573833  1.366963
  S     2.225429  1.392425  5.031931
  S     2.619319  5.593676  5.377346
