16  
    
  C     1.404911  0.721434  3.018397
  C     0.951581  4.171950  2.706308
  C     0.174956  0.248337  2.433845
  C    -0.134113  3.515684  1.933235
  N     2.391320  0.960693  2.144810
  N     2.036540  4.432789  1.957028
  N     0.268774  0.129270  1.129883
  N     0.081564  3.617310  0.601183
  N    -0.359833  0.603285  4.922399
  N    -0.954732  3.856404  4.416760
  S    -1.172430  0.111961  3.503734
  S    -1.494414  3.184564  2.951862
  S     1.779825  0.581687  0.640326
  S     1.643766  4.095838  0.393574
  S     1.290053  0.820342  4.748750
  S     0.649430  4.403288  4.433827
