16  
    
  C    -0.958687 -0.502953  2.445692
  C    -1.087393  3.022770  2.480018
  C    -2.052360 -1.046689  1.750343
  C    -2.349854  2.870222  1.747854
  N     0.116440 -0.214240  1.676596
  N    -0.052369  3.083070  1.629157
  N    -1.941525 -1.210621  0.431848
  N    -2.189592  2.455247  0.475571
  N    -2.679055 -1.148175  4.279609
  N    -2.929156  3.189080  4.276874
  S    -3.435013 -1.518574  2.807759
  S    -3.723677  3.017384  2.805865
  S    -0.344886 -0.701627  0.113926
  S    -0.577898  2.683096  0.133837
  S    -1.129473 -0.602968  4.162705
  S    -1.253701  3.337190  4.146782
