16  
    
  C    -4.763295 -2.353986  1.710968
  C    -4.814327  1.099051  1.664455
  C    -5.974442 -2.853193  1.153970
  C    -5.891240  0.370048  1.059745
  N    -3.804755 -2.173185  0.831717
  N    -3.793760  1.372474  0.858573
  N    -5.983282 -3.058200 -0.171265
  N    -5.779369  0.277549 -0.275848
  N    -6.394475 -2.651876  3.733345
  N    -6.786373  0.920810  3.504387
  S    -7.185941 -3.173753  2.342629
  S    -7.334018  0.106161  2.115752
  S    -4.427737 -2.592260 -0.672903
  S    -4.317747  0.864639 -0.653650
  S    -4.810079 -2.167210  3.485080
  S    -5.176301  1.446655  3.340065
