16  
    
  C     2.826099  1.493789  3.618847
  C     2.923535  5.324686  3.520313
  C     1.632953  0.865508  3.071931
  C     1.792044  4.779794  2.815042
  N     3.745333  1.636228  2.683726
  N     3.953116  5.496136  2.712322
  N     1.666228  0.539386  1.770778
  N     1.875390  4.707888  1.502025
  N     1.022418  1.497120  5.503312
  N     1.027572  5.103178  5.220752
  S     0.356873  0.684916  4.226073
  S     0.433728  4.425683  3.826357
  S     3.105001  1.068923  1.198923
  S     3.352760  5.258810  1.152559
  S     2.691787  1.755170  5.422127
  S     2.736370  5.346770  5.255848
