16  
    
  C     1.254770  0.314608  3.125245
  C     0.958728  4.192907  2.601413
  C     0.102483  0.107812  2.328062
  C    -0.048003  3.367133  1.903316
  N     2.421520  0.236297  2.435755
  N     2.091270  4.344318  1.872251
  N     0.285748 -0.092133  1.023522
  N     0.228065  3.210372  0.604610
  N    -0.772507  0.465622  4.761011
  N    -0.944224  3.920740  4.268979
  S    -1.381427  0.281717  3.180870
  S    -1.522700  3.218816  2.830479
  S     1.896755 -0.010795  0.870550
  S     1.752667  3.772781  0.371810
  S     0.919272  0.678203  4.753244
  S     0.603518  4.385169  4.268572
