16  
    
  C    -0.171300 -0.189613  2.555862
  C    -0.022849  3.788438  2.360319
  C    -1.450525 -0.621329  2.010720
  C    -1.203856  3.155174  1.814726
  N     0.738096 -0.062245  1.638213
  N     1.058240  3.711912  1.541941
  N    -1.475426 -0.733503  0.700843
  N    -1.140283  2.872634  0.495093
  N    -1.732146 -0.322000  4.601216
  N    -1.716265  3.498173  4.301937
  S    -2.624850 -0.687768  3.263907
  S    -2.523964  3.031653  2.927361
  S     0.094940 -0.374030  0.102844
  S     0.371117  3.283881  0.044219
  S    -0.107304 -0.104534  4.309311
  S    -0.104682  3.972340  4.140526
