16  
    
  C    -4.226155 -1.966485  1.754448
  C    -4.150038  1.536289  1.943391
  C    -5.426311 -2.518741  1.204821
  C    -5.373524  0.957394  1.379566
  N    -3.178942 -1.998284  0.955145
  N    -3.215409  1.733491  1.011448
  N    -5.329999 -2.752406 -0.130163
  N    -5.240764  0.524324  0.109550
  N    -6.022657 -2.068978  3.647131
  N    -5.917002  1.745720  3.694295
  S    -6.817814 -2.387551  2.263678
  S    -6.693894  0.931988  2.477629
  S    -3.768313 -2.512901 -0.555567
  S    -3.832113  1.049379 -0.394388
  S    -4.431977 -1.465218  3.520884
  S    -4.309665  2.068932  3.511981
