16  
    
  C    -3.147618 -1.901000  1.901441
  C    -3.601138  1.733511  2.078699
  C    -4.362890 -2.318124  1.241894
  C    -4.651965  1.031949  1.405728
  N    -2.174016 -1.780048  1.015885
  N    -2.515102  1.869274  1.300424
  N    -4.238608 -2.695904 -0.019812
  N    -4.409290  0.810969  0.112851
  N    -4.871354 -2.042850  3.767491
  N    -5.522318  1.470965  3.779509
  S    -5.569622 -2.757086  2.447162
  S    -6.130146  0.917778  2.377159
  S    -2.688221 -2.291278 -0.464525
  S    -2.833441  1.286885 -0.172760
  S    -3.321585 -1.431650  3.547458
  S    -4.005056  1.953347  3.711717
