16  
    
  C    -4.643182 -2.361610  1.488406
  C    -4.460653  1.294879  1.873123
  C    -5.851923 -2.765578  0.779756
  C    -5.666637  0.851626  1.214430
  N    -3.617079 -1.940529  0.760678
  N    -3.499669  1.709932  1.035442
  N    -5.680354 -2.678771 -0.522379
  N    -5.485527  0.765386 -0.119678
  N    -6.412514 -2.928975  3.254927
  N    -6.102536  0.747198  3.790211
  S    -7.147747 -3.192972  1.807392
  S    -6.842108  0.293813  2.401175
  S    -4.172164 -2.119098 -0.829367
  S    -4.038366  1.345136 -0.532079
  S    -4.907227 -2.303871  3.214559
  S    -4.515531  1.152854  3.728758
