16  
    
  C    -1.420358 -0.639114  1.812992
  C    -1.293365  3.341513  2.077209
  C    -2.621185 -1.290309  1.432984
  C    -2.487478  2.780382  1.494582
  N    -0.504287 -0.605907  0.845696
  N    -0.325430  3.678106  1.216344
  N    -2.759846 -1.417169  0.124649
  N    -2.412031  2.572516  0.162858
  N    -2.675917 -0.886997  4.080608
  N    -2.914408  2.856078  3.990281
  S    -3.648540 -1.482438  2.824075
  S    -3.661060  2.196891  2.666649
  S    -1.281627 -1.112984 -0.530553
  S    -0.935369  3.247823 -0.290163
  S    -1.185733 -0.303419  3.570232
  S    -1.488771  3.637000  3.747771
