16  
    
  C     1.999222  0.647283  3.170270
  C     1.864230  4.357106  3.091437
  C     0.689976  0.408156  2.629518
  C     0.628668  3.996168  2.464111
  N     2.976926  0.616231  2.270708
  N     2.906692  4.144423  2.261700
  N     0.702144  0.205846  1.321472
  N     0.680081  3.837133  1.099412
  N     0.409266  0.680741  5.175449
  N     0.222558  4.285558  5.118159
  S    -0.587279  0.280662  3.920475
  S    -0.698000  3.997762  3.660527
  S     2.244151  0.300407  0.813343
  S     2.254186  3.999580  0.776530
  S     2.007971  0.780378  4.947955
  S     1.873832  4.508475  4.836712
