16  
    
  C    -4.189529 -1.985252  1.948072
  C    -4.190944  1.350720  1.842953
  C    -5.487212 -2.333590  1.452756
  C    -5.451312  1.310629  1.054719
  N    -3.272854 -2.067271  1.001665
  N    -3.120620  1.390632  1.061801
  N    -5.611907 -2.507361  0.129372
  N    -5.278195  1.082845 -0.267089
  N    -5.699454 -2.279202  3.967950
  N    -6.093533  1.567328  3.591433
  S    -6.728465 -2.289128  2.664039
  S    -6.814973  1.245469  2.151650
  S    -4.028885 -2.371001 -0.448239
  S    -3.563817  1.150289 -0.539725
  S    -4.049293 -2.038502  3.690657
  S    -4.464780  1.500281  3.541973
