16  
    
  C     3.178238  1.641848  3.712751
  C     3.174273  5.140395  3.432517
  C     2.009141  1.132175  3.021514
  C     2.052854  4.622923  2.717327
  N     4.225364  1.738979  2.899060
  N     4.194478  5.383697  2.614229
  N     2.142741  0.777584  1.741811
  N     2.157907  4.446708  1.421586
  N     1.380196  1.458948  5.495538
  N     1.339343  4.733639  5.180985
  S     0.626971  1.080636  4.076628
  S     0.638763  4.278029  3.729300
  S     3.722208  1.138457  1.347146
  S     3.698182  4.840139  1.066647
  S     2.953997  2.042013  5.351161
  S     2.905451  5.376715  5.173978
