16  
    
  C    -4.922658 -2.580254  1.947148
  C    -5.251896  1.014399  1.780475
  C    -6.132768 -2.907732  1.219123
  C    -6.451243  0.459036  1.146630
  N    -3.878749 -2.415103  1.160387
  N    -4.189678  1.201943  0.980774
  N    -5.976827 -3.242924 -0.045152
  N    -6.391316  0.364544 -0.177843
  N    -6.736770 -2.512006  3.663105
  N    -7.102856  1.052628  3.614992
  S    -7.438981 -3.241374  2.300741
  S    -7.889385  0.557322  2.241698
  S    -4.357327 -2.831339 -0.355324
  S    -4.803964  0.817981 -0.563272
  S    -5.077940 -2.339253  3.655426
  S    -5.504558  1.330619  3.462027
