16  
    
  C    -0.240181 -0.665288  2.634413
  C    -0.397765  3.122820  2.702951
  C    -1.595189 -1.053664  2.104328
  C    -1.575346  2.762699  2.029141
  N     0.775233 -0.767949  1.811043
  N     0.619866  3.389079  1.873600
  N    -1.531892 -1.348044  0.834294
  N    -1.378621  2.438909  0.747292
  N    -1.962865 -0.622330  4.640898
  N    -2.070323  2.919723  4.554483
  S    -2.823896 -1.272490  3.385057
  S    -2.865104  2.417883  3.186467
  S     0.095316 -1.235250  0.368058
  S     0.187050  2.952720  0.375728
  S    -0.328213 -0.305909  4.313757
  S    -0.574956  3.587638  4.377909
