16  
    
  C     1.917544  0.499766  3.102108
  C     1.871120  4.261093  3.203034
  C     0.584350  0.286100  2.548847
  C     0.616182  3.866951  2.663181
  N     2.882304  0.508418  2.187147
  N     2.924666  4.294963  2.330882
  N     0.564292  0.210167  1.241097
  N     0.645658  3.902054  1.306115
  N     0.363339  0.392012  5.100352
  N     0.103933  4.211103  5.188278
  S    -0.669824  0.129470  3.798451
  S    -0.744966  4.055834  3.717583
  S     2.073905  0.378471  0.715638
  S     2.190961  4.131582  0.815217
  S     1.919596  0.785887  4.874190
  S     1.819956  4.187513  4.984204
