16  
    
  C    -2.839446 -1.721796  2.030936
  C    -2.422562  2.257340  1.979832
  C    -4.056833 -2.135810  1.337622
  C    -3.702516  1.938224  1.461839
  N    -1.948634 -1.252274  1.151226
  N    -1.405909  1.993904  1.146059
  N    -4.021434 -2.172249 -0.025115
  N    -3.713530  1.610142  0.175717
  N    -4.631029 -2.050553  3.899959
  N    -4.175988  2.218512  3.956823
  S    -5.289398 -2.587159  2.448571
  S    -5.063269  2.096897  2.531935
  S    -2.533698 -1.612974 -0.401738
  S    -2.165096  1.585578 -0.304329
  S    -3.054801 -1.593131  3.788160
  S    -2.482905  2.321870  3.708638
