16  
    
  C     3.237086  1.561288  3.726914
  C     3.202341  5.000926  3.446004
  C     1.959211  1.233090  3.111854
  C     1.997254  4.544564  2.797884
  N     4.284979  1.666064  2.903704
  N     4.282725  5.108941  2.681632
  N     2.110257  1.067937  1.815132
  N     2.087358  4.570976  1.479462
  N     1.362301  1.497574  5.529331
  N     1.354362  5.159713  5.220536
  S     0.578548  1.182532  4.083920
  S     0.604721  4.656411  3.816517
  S     3.665052  1.336615  1.358743
  S     3.717024  4.788510  1.095062
  S     3.013959  1.738564  5.481331
  S     3.015972  5.226886  5.190756
