16  
    
  C     1.897763  0.542815  3.156609
  C     1.952387  4.094417  3.175004
  C     0.578050  0.348237  2.605783
  C     0.606020  3.974211  2.574397
  N     2.858713  0.509750  2.244527
  N     2.905793  4.382847  2.282652
  N     0.542117  0.261117  1.261303
  N     0.646481  3.887180  1.266388
  N     0.352087  0.497197  5.138006
  N     0.166408  4.281943  5.153308
  S    -0.600458  0.130040  3.814128
  S    -0.765497  4.050535  3.719864
  S     2.138635  0.345415  0.784689
  S     2.191264  4.065427  0.840518
  S     1.973153  0.788197  4.850388
  S     1.800914  4.239444  4.905164
