16  
    
  C     0.794719  0.361074  3.062773
  C     0.578518  3.863582  2.983936
  C    -0.471088  0.126124  2.399612
  C    -0.647664  3.375622  2.428128
  N     1.825671  0.555139  2.235816
  N     1.546165  4.032118  2.097178
  N    -0.387227 -0.184426  1.119019
  N    -0.580823  2.931058  1.197460
  N    -1.000234  0.260954  4.900671
  N    -1.120544  3.936927  4.875592
  S    -1.821757  0.208522  3.445463
  S    -1.986247  3.305413  3.559734
  S     1.183223  0.141671  0.762678
  S     0.983039  3.316427  0.662513
  S     0.647189  0.590235  4.745592
  S     0.465124  4.224238  4.643741
