16  
    
  C    -4.643142 -2.222324  1.496479
  C    -4.458825  1.439548  1.880860
  C    -5.827861 -2.645600  0.716676
  C    -5.578637  0.756309  1.336563
  N    -3.600603 -1.792515  0.779787
  N    -3.477201  1.819918  1.067150
  N    -5.544101 -2.770334 -0.577338
  N    -5.555328  0.777804  0.019346
  N    -6.454752 -2.900357  3.232314
  N    -6.033229  0.871435  3.882300
  S    -7.079938 -3.320280  1.711815
  S    -6.800837  0.287970  2.446419
  S    -4.003098 -2.138766 -0.812053
  S    -4.117259  1.393823 -0.385515
  S    -4.840123 -2.390064  3.223973
  S    -4.424880  1.346591  3.617674
