16  
    
  C    -2.944254 -1.645163  1.987555
  C    -2.564420  2.114324  2.010026
  C    -4.125998 -2.128970  1.276659
  C    -3.854311  1.825087  1.354938
  N    -1.915094 -1.302783  1.231242
  N    -1.525827  2.174525  1.188983
  N    -3.878191 -2.301551 -0.008619
  N    -3.718815  1.614411  0.023675
  N    -4.642482 -2.170871  3.787099
  N    -4.274822  2.227794  3.898823
  S    -5.462341 -2.647768  2.369595
  S    -5.141983  2.070268  2.525924
  S    -2.383071 -1.659991 -0.315494
  S    -2.125231  1.771693 -0.344066
  S    -3.112688 -1.614731  3.652564
  S    -2.608719  2.347847  3.753221
