16  
    
  C    -5.692956 -2.794254  1.497630
  C    -5.528997  0.913535  1.449444
  C    -6.884111 -3.106872  0.799419
  C    -6.762277  0.405907  0.801814
  N    -4.732573 -2.382550  0.682295
  N    -4.482408  1.026239  0.659072
  N    -6.704382 -3.291670 -0.517854
  N    -6.667545  0.256902 -0.528037
  N    -7.625498 -2.784891  3.183394
  N    -7.355654  0.869990  3.231932
  S    -8.257550 -3.249889  1.786599
  S    -8.094235  0.197446  1.939480
  S    -5.182067 -2.794380 -0.825804
  S    -5.052682  0.604777 -0.854956
  S    -6.023631 -2.648032  3.211333
  S    -5.699615  1.010717  3.204179
