16  
    
  C     2.808606  1.547030  3.481898
  C     2.834342  5.287247  3.297735
  C     1.615794  0.915959  3.016310
  C     1.742565  4.562313  2.727945
  N     3.816170  1.718300  2.661030
  N     3.873704  5.542565  2.515559
  N     1.719822  0.632031  1.720184
  N     1.856596  4.482569  1.396888
  N     1.253832  1.227002  5.533361
  N     1.211597  4.799157  5.285039
  S     0.430289  0.630232  4.227487
  S     0.468446  4.272135  3.920409
  S     3.258307  1.031567  1.243544
  S     3.329619  5.106277  0.990449
  S     2.681300  1.999610  5.101847
  S     2.763873  5.459606  5.018827
