16  
    
  C     2.843897  1.538811  3.553997
  C     2.943859  5.206691  3.384234
  C     1.638168  0.906606  3.024857
  C     1.780133  4.635723  2.759709
  N     3.825147  1.715045  2.666769
  N     3.872802  5.612551  2.532848
  N     1.682171  0.584230  1.745490
  N     1.845582  4.621225  1.443086
  N     1.166225  1.332656  5.519326
  N     1.137917  4.995259  5.280386
  S     0.402503  0.628782  4.226400
  S     0.430831  4.314663  3.929392
  S     3.166865  1.011485  1.225558
  S     3.383472  5.160580  0.995206
  S     2.691819  1.929091  5.229020
  S     2.708210  5.398398  5.127465
