16  
    
  C     2.381130  1.199954  3.431330
  C     2.379571  4.784591  3.315310
  C     1.168277  0.771858  2.717821
  C     1.121900  4.437808  2.673295
  N     3.392458  1.602425  2.630427
  N     3.385434  5.143502  2.476895
  N     1.293534  0.722033  1.412508
  N     1.271726  4.257941  1.359877
  N     0.545580  0.601958  5.128893
  N     0.516502  4.216921  5.245581
  S    -0.248686  0.464434  3.701430
  S    -0.162938  3.848644  3.723851
  S     2.801263  1.287149  1.008664
  S     2.809526  4.718885  0.906467
  S     2.132648  0.995122  5.180825
  S     2.209161  4.715228  5.095426
