16  
    
  C     0.832429 -0.124595  2.814669
  C     0.482885  3.491534  2.957438
  C    -0.473076 -0.164213  2.231090
  C    -0.791180  3.464599  2.336485
  N     1.807140  0.025366  1.914217
  N     1.486745  3.839477  2.121629
  N    -0.465499 -0.262408  0.906147
  N    -0.817288  3.785906  1.044555
  N    -0.817935 -0.223018  4.838233
  N    -1.190849  2.997992  4.861277
  S    -1.696859 -0.509782  3.450508
  S    -2.145813  3.139011  3.480915
  S     1.133349 -0.140539  0.364934
  S     0.745503  3.904851  0.623436
  S     0.782565 -0.027522  4.541680
  S     0.393918  3.369681  4.692541
