16  
    
  C    -2.284873 -1.145308  2.124700
  C    -2.739801  2.657258  2.285984
  C    -3.388808 -1.818817  1.547211
  C    -3.837823  1.912890  1.723993
  N    -1.373843 -0.693997  1.274960
  N    -1.728291  2.937072  1.460284
  N    -3.310165 -1.898744  0.237618
  N    -3.726487  1.745952  0.429252
  N    -4.085488 -1.563147  3.965315
  N    -4.403270  2.158292  4.239230
  S    -4.665270 -2.310060  2.548629
  S    -5.065695  1.450295  2.878089
  S    -1.872736 -1.204214 -0.221915
  S    -2.274475  2.418279 -0.026861
  S    -2.523610 -0.958559  3.897518
  S    -2.890255  2.831890  4.035672
