16  
    
  C    -1.428009 -0.911811  2.358906
  C    -1.525048  2.811974  2.021784
  C    -2.506136 -1.457571  1.590400
  C    -2.599956  2.019197  1.404701
  N    -0.276046 -0.707185  1.682184
  N    -0.507518  3.174257  1.262436
  N    -2.284250 -1.525071  0.278753
  N    -2.313044  1.787071  0.142233
  N    -3.298029 -1.503452  3.995453
  N    -3.367470  2.398582  3.859906
  S    -3.949761 -1.696681  2.485518
  S    -3.884922  1.640566  2.481779
  S    -0.677873 -1.030504  0.077233
  S    -0.824963  2.441293 -0.185334
  S    -1.749852 -0.905062  4.084815
  S    -1.875735  3.115217  3.735828
