16  
    
  C    -4.012783 -1.725549  1.661689
  C    -3.866967  1.487346  1.684292
  C    -5.201816 -2.238321  1.021471
  C    -5.139802  1.333483  1.100766
  N    -2.920373 -1.799878  0.870713
  N    -2.820748  1.589384  0.833409
  N    -5.077182 -2.519684 -0.271755
  N    -5.036442  1.095436 -0.197299
  N    -5.782000 -1.978661  3.550076
  N    -5.660270  1.517803  3.640122
  S    -6.540545 -2.264625  2.112029
  S    -6.518853  1.373395  2.262492
  S    -3.481970 -2.329811 -0.595196
  S    -3.476657  1.319331 -0.693837
  S    -4.195534 -1.639968  3.407883
  S    -4.026357  1.700725  3.468018
