16  
    
  C     0.581438 -0.130635  2.780118
  C     0.291465  3.526302  2.860881
  C    -0.674246 -0.516904  2.194885
  C    -0.921774  3.309993  2.155644
  N     1.555766  0.118755  1.934211
  N     1.304783  3.977002  2.119250
  N    -0.582419 -0.619677  0.886846
  N    -0.730791  3.165054  0.813948
  N    -1.088456 -0.492380  4.725083
  N    -1.518849  3.078527  4.687830
  S    -2.010520 -0.668453  3.344124
  S    -2.213964  2.805185  3.198725
  S     0.943367 -0.155904  0.372226
  S     0.802659  3.689156  0.571729
  S     0.481744 -0.010599  4.515918
  S     0.131108  3.468418  4.645478
