16  
    
  C    -5.767896 -2.600964  1.377445
  C    -5.556273  0.761248  1.533818
  C    -6.955767 -3.098371  0.707517
  C    -6.793553  0.465640  0.857169
  N    -4.707063 -2.484917  0.576752
  N    -4.474951  0.896120  0.743252
  N    -6.855231 -3.206313 -0.598423
  N    -6.681626  0.238677 -0.466128
  N    -7.597867 -3.007803  3.184713
  N    -7.446246  0.646374  3.343903
  S    -8.376124 -3.373829  1.695458
  S    -8.157789  0.276716  1.868081
  S    -5.292572 -2.806674 -0.986018
  S    -5.074501  0.592316 -0.826487
  S    -5.946021 -2.541206  3.147793
  S    -5.786104  1.089956  3.211186
