16  
    
  C    -1.319829 -0.678548  1.849867
  C    -1.297266  3.338304  2.092315
  C    -2.690078 -1.114119  1.454440
  C    -2.379318  2.621324  1.525506
  N    -0.504930 -0.593478  0.829583
  N    -0.346406  3.627887  1.206748
  N    -2.802002 -1.410755  0.182231
  N    -2.412805  2.713009  0.191506
  N    -2.708204 -0.728792  3.956758
  N    -2.879676  2.882484  4.080189
  S    -3.665744 -1.494283  2.868054
  S    -3.601229  2.221384  2.708638
  S    -1.304138 -1.092182 -0.516267
  S    -0.939377  3.260464 -0.306709
  S    -1.196397 -0.243854  3.479059
  S    -1.405363  3.664575  3.793689
