16  
    
  C     1.913374  0.475657  3.081590
  C     1.878756  4.169884  3.303915
  C     0.582414  0.186168  2.576462
  C     0.594105  4.094481  2.634069
  N     2.833226  0.585897  2.108153
  N     2.862768  4.277491  2.415660
  N     0.492723  0.125368  1.251160
  N     0.619134  3.856992  1.318550
  N     0.228467  0.261315  5.149690
  N     0.171843  4.064507  5.145280
  S    -0.678025  0.162892  3.749603
  S    -0.677890  4.001954  3.761125
  S     2.078772  0.414867  0.630271
  S     2.222554  4.217585  0.879402
  S     1.846950  0.725359  4.782614
  S     1.783466  4.185509  5.046304
