16  
    
  C     0.849376  0.344909  3.004828
  C     0.573568  3.710001  2.952448
  C    -0.422381  0.083227  2.292542
  C    -0.805113  3.532946  2.425696
  N     1.894729  0.416351  2.168249
  N     1.538724  3.856832  2.039918
  N    -0.273680 -0.201278  0.984346
  N    -0.775884  3.385825  1.105088
  N    -0.961786  0.277288  4.907209
  N    -1.122336  3.652804  4.933542
  S    -1.728661 -0.035585  3.463194
  S    -2.019243  3.288674  3.608272
  S     1.335372  0.046890  0.643010
  S     0.816265  3.461083  0.555611
  S     0.646243  0.727887  4.738879
  S     0.504410  4.011905  4.662479
