16  
    
  C    -2.844967 -1.765168  2.018644
  C    -2.661038  2.229453  2.037705
  C    -4.043711 -2.123758  1.259336
  C    -3.894843  1.868328  1.303846
  N    -1.792974 -1.486914  1.256836
  N    -1.635738  2.227282  1.201240
  N    -3.815200 -2.389720 -0.018321
  N    -3.809638  1.904856 -0.018410
  N    -4.797406 -2.234506  3.670670
  N    -4.522721  1.924174  3.828197
  S    -5.477200 -2.538904  2.211384
  S    -5.276971  1.822800  2.321571
  S    -2.296436 -1.869498 -0.317596
  S    -2.184455  2.108278 -0.366965
  S    -3.182262 -1.685885  3.708901
  S    -2.920286  2.454899  3.745357
