16  
    
  C    -1.461189 -0.967068  2.505139
  C    -1.460801  2.649915  2.273040
  C    -2.485608 -1.590408  1.711716
  C    -2.532007  1.956108  1.530210
  N    -0.316349 -0.732174  1.803722
  N    -0.511608  3.002165  1.438009
  N    -2.191486 -1.653973  0.380154
  N    -2.268160  1.664025  0.268424
  N    -3.417015 -1.415533  4.118008
  N    -3.405231  2.468931  3.916342
  S    -4.004273 -1.903144  2.628020
  S    -3.923753  1.714374  2.524857
  S    -0.633091 -1.049889  0.201278
  S    -0.816001  2.348696 -0.044775
  S    -1.833771 -1.038407  4.162693
  S    -1.845165  3.017923  3.915066
