16  
    
  C    -4.604249 -2.141280  1.498545
  C    -4.406890  1.308861  1.972053
  C    -5.668481 -2.771192  0.738181
  C    -5.611232  0.819382  1.321350
  N    -3.535700 -1.798664  0.763054
  N    -3.581922  1.784447  1.082801
  N    -5.420059 -2.812938 -0.539993
  N    -5.596798  0.684984  0.018302
  N    -6.431701 -2.947987  3.192305
  N    -5.936840  0.862170  3.812057
  S    -7.027208 -3.301307  1.743455
  S    -6.773459  0.394926  2.505930
  S    -3.940373 -2.173122 -0.830272
  S    -4.132152  1.455486 -0.437200
  S    -4.890057 -2.447668  3.188964
  S    -4.409328  1.491525  3.682809
