16  
    
  C     3.294461  1.463468  3.403065
  C     3.203650  4.897706  3.563988
  C     1.964475  1.323925  2.886196
  C     1.880790  4.673392  2.936652
  N     4.256412  1.516503  2.494731
  N     4.155322  5.118858  2.677776
  N     1.993434  1.219090  1.560474
  N     1.933626  4.423916  1.629551
  N     1.703214  1.810660  5.399226
  N     1.406590  5.007882  5.388673
  S     0.709365  1.587470  4.049389
  S     0.588324  4.697546  3.986107
  S     3.581291  1.359343  1.041852
  S     3.507862  4.689765  1.174491
  S     3.378180  1.602748  5.143188
  S     3.065902  5.397218  5.200705
