16  
    
  C    -3.046507 -1.770739  1.886691
  C    -3.460428  1.599845  2.123579
  C    -4.311937 -2.259565  1.344380
  C    -4.683555  1.128710  1.481358
  N    -2.130291 -1.482967  0.966954
  N    -2.392460  1.510043  1.329829
  N    -4.163599 -2.666998  0.096235
  N    -4.503116  0.915516  0.195620
  N    -4.640113 -2.073126  3.896944
  N    -5.269852  1.423013  3.834895
  S    -5.524708 -2.416428  2.542428
  S    -6.087393  1.154885  2.418134
  S    -2.692334 -2.120772 -0.493064
  S    -2.899310  1.108357 -0.139748
  S    -3.063744 -1.492275  3.653087
  S    -3.675923  1.851145  3.827681
