16  
    
  C     1.573648  0.693643  2.808751
  C     0.862518  4.053890  2.435153
  C     0.329470  0.265909  2.190910
  C    -0.337049  3.454177  1.896366
  N     2.625075  0.834483  1.981503
  N     1.933080  4.259521  1.664153
  N     0.369438  0.236455  0.840988
  N    -0.189012  3.087363  0.621667
  N    -0.181663  0.462045  4.773111
  N    -0.901524  3.771316  4.386009
  S    -0.862443 -0.031452  3.404702
  S    -1.600789  3.133231  3.024602
  S     1.951303  0.596200  0.422788
  S     1.336384  3.656092  0.189800
  S     1.408567  0.909716  4.576063
  S     0.739119  4.171409  4.135154
