16  
    
  C    -0.536404 -0.645521  2.464928
  C    -0.393484  3.449911  2.940780
  C    -1.857746 -0.882716  1.777164
  C    -1.551027  2.909138  2.321724
  N     0.439824 -0.400645  1.581424
  N     0.624056  3.686111  2.089414
  N    -1.786721 -1.092048  0.464107
  N    -1.408714  2.665450  1.027822
  N    -2.393988 -0.792043  4.290579
  N    -2.255577  3.350740  4.712449
  S    -3.178336 -1.031415  2.862155
  S    -2.977217  2.835675  3.328610
  S    -0.192285 -0.661046  0.060243
  S     0.121560  3.097323  0.619766
  S    -0.763189 -0.382272  4.159786
  S    -0.635940  3.745158  4.657496
