16  
    
  C    -1.297445 -0.936186  2.069117
  C    -1.557171  3.338034  2.017427
  C    -2.539969 -1.360203  1.437385
  C    -2.534831  2.456530  1.404028
  N    -0.436089 -0.538709  1.139989
  N    -0.558830  3.624390  1.173463
  N    -2.468814 -1.578555  0.128565
  N    -2.305267  2.189573  0.100990
  N    -2.930651 -1.048983  4.031444
  N    -3.205492  2.708542  3.876332
  S    -3.767861 -1.555445  2.685919
  S    -3.877313  2.088235  2.459716
  S    -0.980863 -1.012635 -0.335085
  S    -0.957217  3.021766 -0.322677
  S    -1.340310 -0.696668  3.812391
  S    -1.708153  3.419830  3.669925
