16  
    
  C    -2.548157 -1.279984  2.218302
  C    -2.567402  2.523533  2.367314
  C    -3.735325 -1.656991  1.534626
  C    -3.692503  1.843664  1.721548
  N    -1.564657 -0.969093  1.362824
  N    -1.666328  2.925887  1.470296
  N    -3.631467 -1.836458  0.211237
  N    -3.623118  1.774248  0.401107
  N    -4.299065 -1.771512  4.018526
  N    -4.390261  2.020459  4.198589
  S    -5.075918 -2.018124  2.540302
  S    -5.066313  1.408012  2.781123
  S    -2.094581 -1.449101 -0.150102
  S    -2.236271  2.591360 -0.032603
  S    -2.794661 -1.054005  3.968249
  S    -2.825063  2.557982  4.079135
