16  
    
  C     0.892281  0.294969  2.923870
  C     0.482267  3.590679  2.944870
  C    -0.348847 -0.061493  2.313655
  C    -0.815976  3.668059  2.390821
  N     1.948223  0.388848  2.106420
  N     1.448048  3.723161  2.039008
  N    -0.246850 -0.324825  0.998785
  N    -0.884771  3.501048  1.048166
  N    -0.894847  0.222365  4.788721
  N    -1.137823  3.528437  4.950369
  S    -1.734124 -0.193980  3.387290
  S    -2.015174  3.300266  3.582770
  S     1.320779 -0.029181  0.632894
  S     0.728956  3.827797  0.539547
  S     0.739235  0.587361  4.644148
  S     0.544152  3.672277  4.689495
