16  
    
  C     0.035207 -0.592734  2.500542
  C    -0.240257  3.104642  2.626740
  C    -1.234708 -1.078639  1.919802
  C    -1.423499  2.521587  2.046100
  N     1.039951 -0.586648  1.630906
  N     0.737757  3.299198  1.749825
  N    -1.184703 -1.190998  0.584901
  N    -1.476149  2.579490  0.713889
  N    -1.678036 -0.765180  4.384071
  N    -1.928634  2.862738  4.599148
  S    -2.527731 -1.231376  3.047451
  S    -2.714769  2.331722  3.207035
  S     0.412303 -0.923860  0.087954
  S     0.086830  2.936164  0.241000
  S    -0.046655 -0.346079  4.195718
  S    -0.312238  3.453487  4.365122
