16  
    
  C    -0.123940 -0.377020  2.623998
  C     0.077496  3.524585  2.351377
  C    -1.418423 -0.660881  2.048661
  C    -1.202054  3.165073  1.680118
  N     0.894477 -0.368609  1.779543
  N     1.111698  3.592598  1.501324
  N    -1.413053 -0.604855  0.742257
  N    -1.173142  3.285595  0.338675
  N    -1.856183 -0.393570  4.556992
  N    -1.583946  3.477277  4.270134
  S    -2.740772 -0.705651  3.159710
  S    -2.446192  3.041738  2.884515
  S     0.172812 -0.395225  0.238434
  S     0.444229  3.481045 -0.044571
  S    -0.252041 -0.168725  4.317348
  S     0.018414  3.734672  4.079031
