16  
    
  C    -4.182767 -2.524845  1.593346
  C    -4.265148  1.641104  1.952290
  C    -5.423552 -2.921471  1.004983
  C    -5.413103  0.994421  1.341704
  N    -3.233707 -2.314565  0.723253
  N    -3.166159  1.757445  1.217456
  N    -5.331519 -3.290000 -0.277163
  N    -5.203444  0.671613  0.099508
  N    -5.943031 -2.510745  3.489114
  N    -6.238368  1.606458  3.791891
  S    -6.755226 -2.819656  2.058266
  S    -6.826750  0.996187  2.336705
  S    -3.817892 -2.814576 -0.732178
  S    -3.579550  1.108912 -0.305785
  S    -4.334236 -2.029149  3.237283
  S    -4.641827  1.970526  3.617194
