16  
    
  C     0.719027  0.381219  3.086455
  C     0.565962  4.004997  2.973481
  C    -0.582735  0.184615  2.422572
  C    -0.549154  3.193085  2.430813
  N     1.746914  0.455132  2.237470
  N     1.618148  4.000738  2.152518
  N    -0.430531 -0.046363  1.098996
  N    -0.393866  2.822227  1.133467
  N    -1.085843  0.267205  4.979117
  N    -1.169907  4.009284  4.815975
  S    -1.912533  0.296039  3.566950
  S    -1.868900  3.281531  3.521699
  S     1.156306  0.141479  0.689843
  S     1.103821  3.337667  0.683724
  S     0.566671  0.493254  4.842368
  S     0.442050  4.355184  4.657507
