16  
    
  C    -4.255294 -2.469338  1.497294
  C    -4.331331  1.584186  2.044699
  C    -5.484982 -2.774183  0.876897
  C    -5.450834  0.903462  1.378635
  N    -3.212554 -2.328611  0.731626
  N    -3.317394  1.742883  1.234263
  N    -5.312359 -3.119068 -0.408383
  N    -5.314054  0.719130  0.078002
  N    -6.105719 -2.578477  3.365910
  N    -6.155579  1.381180  3.850919
  S    -6.774613 -3.190788  1.976292
  S    -6.829735  0.826247  2.382433
  S    -3.765428 -2.769255 -0.774325
  S    -3.805704  1.249563 -0.302565
  S    -4.463734 -2.240251  3.175123
  S    -4.524857  1.922871  3.687491
