16  
    
  C    -4.708700 -2.250646  1.534993
  C    -4.414674  1.364329  1.913406
  C    -5.780039 -2.798578  0.743538
  C    -5.628941  0.896059  1.286274
  N    -3.685263 -1.917822  0.772524
  N    -3.517296  1.785464  1.045238
  N    -5.656129 -2.639368 -0.585372
  N    -5.537007  0.752532 -0.019236
  N    -6.412060 -2.905204  3.199243
  N    -6.094838  0.804508  3.796199
  S    -7.137716 -3.246853  1.748876
  S    -6.838171  0.251818  2.464201
  S    -4.110147 -2.125337 -0.800501
  S    -4.008026  1.368856 -0.537090
  S    -4.839202 -2.318579  3.241226
  S    -4.499922  1.200834  3.692472
