16  
    
  C    -3.006085 -1.685650  1.940437
  C    -3.375650  1.477715  2.128283
  C    -4.195478 -2.307313  1.377089
  C    -4.613325  1.259522  1.454617
  N    -2.031335 -1.573703  1.026707
  N    -2.302580  1.574923  1.340709
  N    -4.208386 -2.608651  0.066852
  N    -4.560465  0.962029  0.154677
  N    -4.589379 -2.054008  3.942441
  N    -5.265828  1.504939  3.975637
  S    -5.505138 -2.309290  2.570862
  S    -5.996862  1.189111  2.523548
  S    -2.728109 -2.075596 -0.451879
  S    -2.959455  1.119187 -0.193956
  S    -3.043532 -1.532411  3.700486
  S    -3.639803  1.785818  3.788942
