16  
    
  C     2.507560  1.218099  3.370542
  C     2.836335  5.201416  3.788272
  C     1.378743  0.649149  2.607080
  C     1.683510  4.457865  3.328056
  N     3.626122  1.436827  2.675283
  N     3.836325  5.298651  2.882093
  N     1.675081  0.306729  1.360916
  N     1.700300  4.246619  2.008101
  N     0.564812  0.846738  4.991504
  N     1.167973  4.934744  5.836970
  S    -0.051917  0.483959  3.562445
  S     0.335075  4.568151  4.428040
  S     3.252153  0.770937  1.092474
  S     3.225115  4.639054  1.437493
  S     2.141701  1.379212  5.091287
  S     2.649633  5.688394  5.437804
