16  
    
  C    -1.341907 -0.957602  2.250103
  C    -1.556200  2.840204  2.013662
  C    -2.538808 -1.363194  1.504893
  C    -2.691630  2.211583  1.338738
  N    -0.262059 -0.763795  1.549038
  N    -0.493111  3.122438  1.242170
  N    -2.300019 -1.376262  0.216171
  N    -2.345833  1.945913  0.079932
  N    -3.225162 -1.469040  4.076534
  N    -3.289852  2.401245  3.796842
  S    -3.937653 -1.645072  2.534656
  S    -3.863549  1.653441  2.442050
  S    -0.686617 -1.018765 -0.038329
  S    -0.891229  2.597460 -0.273653
  S    -1.690961 -0.789276  3.968766
  S    -1.903623  3.298715  3.680631
