16  
    
  C     2.368840  1.057380  3.241924
  C     2.940908  5.356368  3.924506
  C     1.227951  0.524161  2.540865
  C     1.705743  4.934143  3.318369
  N     3.425063  1.185419  2.489798
  N     3.978961  5.321918  3.110806
  N     1.451265  0.301441  1.237632
  N     1.804380  4.639522  2.026041
  N     0.547211  1.165398  4.978663
  N     1.183581  5.838533  5.710295
  S    -0.078116  0.388067  3.643169
  S     0.397144  5.011222  4.480738
  S     3.051309  0.769011  1.019635
  S     3.420857  4.863691  1.682661
  S     2.203575  1.312312  4.915240
  S     2.825551  5.917536  5.555544
