16  
    
  C    -5.398623 -2.504979  1.369796
  C    -5.457208  1.218207  1.268542
  C    -6.680801 -2.807208  0.768059
  C    -6.557976  0.611067  0.646054
  N    -4.399315 -2.279362  0.538031
  N    -4.401910  1.454974  0.466865
  N    -6.622753 -3.058974 -0.553181
  N    -6.400358  0.527446 -0.674276
  N    -6.970531 -2.929588  3.335922
  N    -7.141005  0.661130  3.109910
  S    -7.812339 -3.211234  1.972274
  S    -7.779580  0.090692  1.743598
  S    -5.034031 -2.594596 -0.998433
  S    -4.886565  1.011325 -1.051937
  S    -5.454332 -2.263610  3.090314
  S    -5.606585  1.169843  2.998584
