16  
    
  C     2.798900  1.596730  3.477693
  C     2.874525  5.220530  3.321698
  C     1.642109  0.933353  2.921559
  C     1.656578  4.680315  2.697530
  N     3.801597  1.679285  2.610847
  N     3.821161  5.524433  2.430346
  N     1.741120  0.594662  1.624869
  N     1.828535  4.289044  1.431143
  N     1.310988  1.230443  5.498339
  N     1.377423  4.688730  5.246355
  S     0.442755  0.628667  4.203461
  S     0.487909  4.209790  3.848607
  S     3.324274  1.074976  1.188577
  S     3.290524  5.039295  0.977941
  S     2.681187  2.039534  5.142022
  S     2.786244  5.508477  4.976518
