16  
    
  C     1.441241  0.626864  2.967324
  C     0.947282  3.971677  2.584201
  C     0.252589  0.274075  2.247205
  C    -0.264475  3.568444  1.822464
  N     2.540336  0.558946  2.236629
  N     1.993143  4.206366  1.825665
  N     0.433625 -0.163149  1.037468
  N    -0.034414  3.304744  0.550629
  N    -0.396308  0.778818  4.632549
  N    -0.959709  3.664045  4.304648
  S    -1.150525  0.311912  3.275415
  S    -1.630370  3.190877  2.897426
  S     2.079336 -0.011221  0.759683
  S     1.540646  3.766162  0.239524
  S     1.220440  1.025243  4.576312
  S     0.651188  4.056820  4.275673
