16  
    
  C     1.128903  0.134655  2.953797
  C     0.882485  3.750240  3.065646
  C    -0.185141 -0.398373  2.471470
  C    -0.392433  3.445986  2.533547
  N     2.008556  0.262817  1.969597
  N     1.835507  3.813083  2.154062
  N    -0.159746 -0.777555  1.166772
  N    -0.369082  3.210792  1.223950
  N    -0.347182 -0.027020  4.927033
  N    -0.843301  3.411937  5.038824
  S    -1.373938 -0.556645  3.730050
  S    -1.723063  3.250341  3.641733
  S     1.330705 -0.307977  0.610744
  S     1.141027  3.594566  0.714686
  S     1.213139  0.474788  4.650156
  S     0.784368  3.876099  4.811916
