16  
    
  C     3.252361  1.506524  3.711213
  C     3.273238  4.932163  3.491099
  C     1.981827  1.316577  3.030703
  C     2.025541  4.755691  2.796709
  N     4.309960  1.508155  2.890178
  N     4.291074  5.017810  2.604312
  N     2.030198  1.199817  1.691601
  N     2.094486  4.474898  1.494167
  N     1.466457  1.284682  5.594042
  N     1.333323  5.162888  5.296009
  S     0.621789  1.252803  4.172254
  S     0.624587  4.737934  3.858520
  S     3.649160  1.344604  1.334885
  S     3.666520  4.786778  1.106933
  S     3.055147  1.754453  5.406896
  S     2.953231  5.215990  5.199934
