16  
    
  C    -2.928040 -1.951817  2.068934
  C    -3.365893  1.596489  2.101115
  C    -4.260927 -2.102969  1.483126
  C    -4.666158  1.280590  1.456726
  N    -1.914699 -1.817415  1.227669
  N    -2.368724  1.622692  1.221740
  N    -4.250868 -2.198914  0.141883
  N    -4.642126  1.096242  0.132124
  N    -4.589980 -1.982770  4.029518
  N    -5.051858  1.651908  3.962528
  S    -5.542161 -2.176977  2.662977
  S    -5.953750  1.134508  2.668244
  S    -2.663439 -2.018351 -0.298632
  S    -3.036875  1.364656 -0.316435
  S    -3.015465 -1.581738  3.793945
  S    -3.389777  1.738777  3.843873
