16  
    
  C    -0.548451 -0.403959  2.397882
  C    -0.386980  3.557557  2.902386
  C    -1.718613 -0.997166  1.771362
  C    -1.538234  2.947876  2.292870
  N     0.478811 -0.295082  1.559607
  N     0.649903  3.810130  2.078501
  N    -1.577407 -1.121512  0.455482
  N    -1.385923  2.664623  1.006215
  N    -2.193319 -0.763811  4.307483
  N    -2.212139  3.262684  4.771274
  S    -3.005264 -1.032104  2.865079
  S    -2.923894  2.910090  3.285185
  S    -0.084479 -0.685492  0.057248
  S     0.135211  3.162164  0.591560
  S    -0.587199 -0.383060  4.175946
  S    -0.605638  3.730455  4.645421
