16  
    
  C    -2.086125 -0.932571  2.292552
  C    -1.953309  2.247668  2.064005
  C    -3.325494 -1.316722  1.665435
  C    -3.213759  1.948774  1.340520
  N    -1.046269 -0.976091  1.508870
  N    -0.958633  2.367177  1.193664
  N    -3.310677 -1.368118  0.367039
  N    -3.133429  1.795204  0.019270
  N    -3.844463 -1.093778  4.132420
  N    -3.785588  2.389619  3.806584
  S    -4.706690 -1.218766  2.713629
  S    -4.543568  1.791203  2.467743
  S    -1.732316 -1.251595 -0.034932
  S    -1.541295  2.135779 -0.353585
  S    -2.262691 -0.629775  3.990026
  S    -2.141364  2.472500  3.762712
