16  
    
  C     0.977994  0.236694  2.911395
  C     0.534749  3.458862  2.823462
  C    -0.171933 -0.153953  2.226978
  C    -0.655015  3.178696  2.041225
  N     1.985923  0.612571  2.176911
  N     1.509950  3.970023  2.105502
  N    -0.079780 -0.125267  0.923751
  N    -0.511634  3.054141  0.716638
  N    -0.778229 -0.219301  4.704759
  N    -1.351061  3.232852  4.521396
  S    -1.512016 -0.484882  3.235880
  S    -1.962605  2.765957  3.110893
  S     1.437642  0.391871  0.596472
  S     1.142958  3.580518  0.503328
  S     0.815066  0.280391  4.624449
  S     0.274819  3.707194  4.511223
