16  
    
  C    -0.194349  0.144276  2.559069
  C    -0.060777  3.736673  2.445791
  C    -1.377867 -0.505316  2.072827
  C    -1.156174  2.952226  1.918822
  N     0.743429  0.254737  1.646642
  N     0.987505  3.878543  1.621678
  N    -1.364992 -0.770900  0.795749
  N    -1.032848  2.657808  0.634344
  N    -1.633215 -0.378418  4.560506
  N    -1.761485  3.479875  4.358575
  S    -2.571770 -0.755314  3.236175
  S    -2.558356  2.870613  3.078351
  S     0.154167 -0.357889  0.224770
  S     0.465046  3.180159  0.208745
  S    -0.025992  0.057904  4.252271
  S    -0.198793  4.038539  4.111359
