16  
    
  C    -2.891960 -1.620275  1.992607
  C    -2.411067  1.991995  2.054687
  C    -4.168783 -1.987793  1.429979
  C    -3.721621  1.761848  1.438273
  N    -1.878358 -1.352171  1.168167
  N    -1.385567  1.841945  1.197001
  N    -4.059992 -2.151954  0.093277
  N    -3.657672  1.672361  0.087898
  N    -4.388787 -2.038230  4.019094
  N    -4.094614  2.265028  4.031328
  S    -5.312404 -2.457190  2.620262
  S    -4.949858  2.119106  2.625627
  S    -2.533058 -1.684074 -0.321079
  S    -2.069983  1.716891 -0.339122
  S    -2.842820 -1.566123  3.696451
  S    -2.426388  2.376583  3.723871
