16  
    
  C    -1.340152 -0.402111  2.037791
  C    -1.175946  3.233586  2.196771
  C    -2.619308 -0.948143  1.505809
  C    -2.444556  2.822436  1.669904
  N    -0.461583 -0.160363  1.085435
  N    -0.215290  3.360093  1.285761
  N    -2.480801 -1.363614  0.229891
  N    -2.495641  2.561735  0.353733
  N    -2.869594 -0.712094  4.069783
  N    -2.740141  2.953578  4.264489
  S    -3.756569 -1.211456  2.753059
  S    -3.697963  2.645932  2.905994
  S    -0.975412 -0.907276 -0.292538
  S    -0.976553  3.052319 -0.188285
  S    -1.360056 -0.162328  3.796201
  S    -1.135718  3.314052  3.886619
