16  
    
  C    -1.970728 -1.087404  2.204664
  C    -2.329175  2.374844  1.962360
  C    -3.110133 -1.635907  1.556808
  C    -3.681608  2.065691  1.415808
  N    -0.933453 -0.948062  1.368248
  N    -1.382467  2.546465  1.067687
  N    -3.007176 -1.739238  0.212247
  N    -3.618493  1.844696  0.105388
  N    -3.817364 -1.092585  3.989346
  N    -4.004956  2.408226  3.936397
  S    -4.505775 -1.743887  2.620555
  S    -4.928912  2.018365  2.597901
  S    -1.464056 -1.220208 -0.181291
  S    -2.072454  2.160151 -0.390606
  S    -2.213692 -0.826702  3.941911
  S    -2.454257  2.899721  3.625256
