16  
    
  C     2.367005  0.874551  3.518857
  C     1.961271  4.919473  3.051973
  C     1.062463  0.696000  2.936848
  C     0.802848  4.380342  2.336324
  N     3.339572  0.877323  2.609034
  N     2.974872  5.308727  2.223767
  N     1.017789  0.557368  1.604014
  N     1.087635  3.911901  1.097026
  N     0.612870  0.934145  5.384481
  N     0.152747  4.423939  4.934994
  S    -0.194490  0.574889  4.044683
  S    -0.543608  4.162916  3.371361
  S     2.653281  0.603998  1.107771
  S     2.527859  4.709881  0.696163
  S     2.264724  1.046437  5.281034
  S     1.704067  5.133590  4.788426
