16  
    
  C    -1.290518 -0.923362  2.051160
  C    -1.579651  3.305794  1.982020
  C    -2.494520 -1.364467  1.442653
  C    -2.555272  2.395980  1.392231
  N    -0.404045 -0.560790  1.175078
  N    -0.539443  3.587039  1.184466
  N    -2.445523 -1.543870  0.134236
  N    -2.332497  2.161008  0.096802
  N    -2.955533 -1.030523  4.014319
  N    -3.221611  2.693739  3.870094
  S    -3.785942 -1.573459  2.687539
  S    -3.882700  2.058553  2.443627
  S    -0.961307 -1.010772 -0.320352
  S    -0.956988  3.005993 -0.323136
  S    -1.378058 -0.723636  3.833630
  S    -1.721040  3.420781  3.681307
