16  
    
  C    -2.980030 -1.598872  1.980012
  C    -2.550618  2.019487  2.037750
  C    -4.029725 -2.232610  1.254621
  C    -3.862774  1.873046  1.366965
  N    -1.934663 -1.370232  1.202976
  N    -1.528345  2.173357  1.202905
  N    -3.889909 -2.288471 -0.068901
  N    -3.764079  1.684047  0.067121
  N    -4.737985 -2.241646  3.761442
  N    -4.418504  2.051498  3.822203
  S    -5.403732 -2.563227  2.251353
  S    -5.224738  1.959718  2.397403
  S    -2.279702 -1.836454 -0.346775
  S    -2.203261  2.055018 -0.326290
  S    -3.224294 -1.692685  3.751175
  S    -2.809674  2.427170  3.704058
