16  
    
  C    -1.631374 -1.155008  2.098527
  C    -1.747084  2.418673  1.928368
  C    -2.948684 -1.258917  1.527341
  C    -2.998371  1.996238  1.272576
  N    -0.647481 -1.011545  1.163312
  N    -0.672358  2.470966  1.139050
  N    -2.936500 -1.558008  0.192099
  N    -2.812020  1.818123 -0.012117
  N    -3.386978 -1.018627  4.078182
  N    -3.577552  2.103549  3.772199
  S    -4.244470 -1.180305  2.656409
  S    -4.348591  1.935728  2.301679
  S    -1.364615 -1.399957 -0.261435
  S    -1.239762  2.172577 -0.376198
  S    -1.748428 -0.940635  3.829630
  S    -1.908859  2.362114  3.692650
