16  
    
  C     1.388778  0.432198  3.049752
  C     0.960234  3.963677  2.646328
  C     0.204323  0.142057  2.305748
  C    -0.157209  3.474444  1.853283
  N     2.475871  0.309331  2.319780
  N     1.959475  4.326619  1.825288
  N     0.407452 -0.093133  0.990456
  N     0.170935  3.218768  0.574106
  N    -0.620529  0.627640  4.707386
  N    -0.968514  3.710917  4.281300
  S    -1.320841  0.332218  3.248165
  S    -1.580148  3.247473  2.780062
  S     2.059625 -0.046801  0.759747
  S     1.662997  3.814231  0.306239
  S     1.020356  0.893485  4.757974
  S     0.618169  4.244367  4.298521
