16  
    
  C    -1.559285 -1.189788  2.703030
  C    -1.688110  2.475834  2.447980
  C    -2.742821 -1.562784  1.896838
  C    -2.915774  2.131611  1.735874
  N    -0.540689 -0.849084  1.940620
  N    -0.672049  2.723798  1.608998
  N    -2.560909 -1.718615  0.597613
  N    -2.801976  1.989977  0.397989
  N    -3.507064 -1.532498  4.458977
  N    -3.555148  2.331058  4.208710
  S    -4.128262 -1.771624  2.899950
  S    -4.375285  2.185276  2.759915
  S    -0.978829 -1.180747  0.343422
  S    -1.209280  2.368062  0.085947
  S    -1.872159 -1.141712  4.442633
  S    -1.940645  2.702436  4.110566
