16  
    
  C     2.930586  1.461315  3.415118
  C     3.000392  4.946448  3.230583
  C     1.730479  0.997695  2.753442
  C     1.764074  4.533091  2.653221
  N     3.966643  1.760384  2.639538
  N     3.914510  5.336655  2.318545
  N     1.851046  0.932425  1.404479
  N     1.825511  4.312484  1.333815
  N     1.183637  1.178956  5.330878
  N     1.168655  5.022598  5.090176
  S     0.403977  0.784201  3.933774
  S     0.455085  4.251182  3.774455
  S     3.405501  1.443837  1.064035
  S     3.352713  4.804924  0.854941
  S     2.772772  1.604482  5.114433
  S     2.794748  5.450806  4.871942
