16  
    
  C    -4.501098 -2.401666  1.538761
  C    -4.355047  1.458464  1.912499
  C    -5.606364 -2.880999  0.697769
  C    -5.512388  0.773581  1.350734
  N    -3.543616 -1.865174  0.802094
  N    -3.451179  1.772703  0.988729
  N    -5.372544 -2.953056 -0.597243
  N    -5.540079  0.794330  0.013034
  N    -6.332389 -3.003365  3.203147
  N    -5.958569  0.867501  4.022588
  S    -7.026994 -3.263116  1.649919
  S    -6.825971  0.505660  2.604207
  S    -3.873693 -2.218520 -0.790037
  S    -4.130966  1.430905 -0.516940
  S    -4.752157 -2.379178  3.261123
  S    -4.451809  1.581623  3.693880
