16  
    
  C    -1.003085 -0.581861  2.353593
  C    -1.174479  3.023187  2.391649
  C    -2.195881 -1.000601  1.715097
  C    -2.443086  2.828815  1.699842
  N    -0.021872 -0.200115  1.566304
  N    -0.164376  3.067162  1.511238
  N    -2.062841 -1.125717  0.401863
  N    -2.383777  2.614033  0.368828
  N    -2.867886 -0.933484  4.156188
  N    -2.952263  3.198539  4.277111
  S    -3.585402 -1.440887  2.774901
  S    -3.784518  2.946038  2.819575
  S    -0.600082 -0.511824  0.051726
  S    -0.759976  2.683901  0.019801
  S    -1.314171 -0.357770  4.064086
  S    -1.273604  3.251547  4.085269
