16  
    
  C     0.890405  0.242599  2.949449
  C     0.502745  3.622292  2.956601
  C    -0.356048 -0.061815  2.285746
  C    -0.816850  3.637070  2.371333
  N     1.910092  0.392147  2.079744
  N     1.452606  3.737362  2.029432
  N    -0.227503 -0.368885  0.997128
  N    -0.860657  3.540056  1.033448
  N    -0.897853  0.197089  4.804370
  N    -1.135948  3.502762  4.941450
  S    -1.718914 -0.196022  3.390735
  S    -2.026850  3.309507  3.588082
  S     1.326227 -0.036738  0.585393
  S     0.706369  3.851988  0.541921
  S     0.738787  0.557614  4.657379
  S     0.539601  3.621372  4.700038
