16  
    
  C    -1.311612 -0.656522  1.900801
  C    -1.260951  3.448354  2.101820
  C    -2.674027 -1.171314  1.479875
  C    -2.402489  2.717863  1.646443
  N    -0.537301 -0.377508  0.864593
  N    -0.308407  3.688384  1.200680
  N    -2.714255 -1.525457  0.235763
  N    -2.383721  2.556287  0.319225
  N    -2.810978 -0.593896  3.980955
  N    -2.736236  2.917913  4.185066
  S    -3.734855 -1.250923  2.803155
  S    -3.599477  2.401194  2.818718
  S    -1.258504 -0.981878 -0.522183
  S    -0.963930  3.179508 -0.251268
  S    -1.280134 -0.118847  3.599062
  S    -1.149553  3.438654  3.856609
