16  
    
  C    -3.757624 -2.491766  1.650063
  C    -3.412047  1.784074  1.554506
  C    -5.033907 -2.444766  0.975248
  C    -4.526492  1.134170  0.990663
  N    -2.738782 -2.276489  0.824991
  N    -2.367266  1.809199  0.709411
  N    -4.999735 -2.361454 -0.370198
  N    -4.429055  0.897304 -0.339815
  N    -5.518066 -2.859941  3.505469
  N    -5.072693  1.444191  3.519503
  S    -6.376246 -2.707984  2.082982
  S    -5.825945  0.909879  2.178034
  S    -3.408146 -2.189759 -0.699164
  S    -2.865974  1.303682 -0.768342
  S    -3.917004 -2.613800  3.359419
  S    -3.601843  2.140804  3.320206
