16  
    
  C     1.378033  0.729108  2.915823
  C     0.925120  4.157144  2.549518
  C     0.187947  0.299247  2.281775
  C    -0.189609  3.495542  1.945767
  N     2.385284  1.035919  2.079025
  N     1.983105  4.292728  1.792434
  N     0.343166  0.155438  0.937182
  N     0.030275  3.386903  0.655201
  N    -0.258659  0.240598  4.899211
  N    -0.913991  3.723234  4.325476
  S    -1.082772  0.116800  3.450015
  S    -1.547422  3.154115  2.964827
  S     1.902915  0.671060  0.578068
  S     1.524035  3.928041  0.296165
  S     1.322164  0.754017  4.661435
  S     0.600978  4.359189  4.226141
