16  
    
  C    -0.912974 -0.520097  2.403823
  C    -0.534252  3.211707  2.864207
  C    -2.159492 -0.949966  1.798254
  C    -1.781439  2.818449  2.266767
  N     0.190058 -0.597275  1.628559
  N     0.540559  3.227105  2.057452
  N    -2.078256 -1.035452  0.465023
  N    -1.666573  2.599971  0.964447
  N    -2.759793 -0.653576  4.256152
  N    -2.382002  3.253080  4.697557
  S    -3.515697 -1.184553  2.864848
  S    -3.120709  2.733068  3.305010
  S    -0.432619 -0.913327  0.092891
  S    -0.072301  2.798530  0.567400
  S    -1.078381 -0.470532  4.145682
  S    -0.770094  3.700190  4.559457
