16  
    
  C     1.349129  0.322288  3.125673
  C     0.969682  3.968622  2.606040
  C     0.123824  0.149642  2.325200
  C    -0.109245  3.428745  1.814584
  N     2.481320  0.282937  2.383087
  N     1.984596  4.410625  1.917499
  N     0.353333 -0.080667  1.062330
  N     0.140914  3.186460  0.546972
  N    -0.669305  0.548019  4.665912
  N    -0.986093  3.762000  4.201625
  S    -1.367999  0.311899  3.224720
  S    -1.541904  3.247949  2.794635
  S     2.007032 -0.043461  0.770114
  S     1.717901  3.795693  0.339580
  S     0.960167  0.810603  4.778126
  S     0.637435  4.338115  4.327244
