16  
    
  C    -4.733732 -2.398839  1.461441
  C    -4.570819  0.989462  1.590260
  C    -5.975037 -2.769750  0.856663
  C    -5.843326  0.882856  0.896777
  N    -3.704559 -2.306751  0.623340
  N    -3.508097  1.202660  0.800331
  N    -5.934434 -2.948670 -0.438720
  N    -5.689545  0.834388 -0.426281
  N    -6.444216 -2.691967  3.402133
  N    -6.299193  0.724148  3.397644
  S    -7.308187 -3.042583  2.046608
  S    -7.165552  0.570183  2.009934
  S    -4.344178 -2.621663 -0.918142
  S    -4.139921  1.056268 -0.718593
  S    -4.821245 -2.529267  3.225142
  S    -4.708458  0.947766  3.333842
