16  
    
  C     1.592501  0.640666  2.815549
  C     0.879571  3.877744  2.520058
  C     0.363897  0.243151  2.177645
  C    -0.353568  3.475494  1.870543
  N     2.582086  0.830898  1.959076
  N     1.798689  4.195925  1.606383
  N     0.407295  0.171075  0.850329
  N    -0.185446  3.149706  0.596265
  N    -0.104406  0.569052  4.718407
  N    -0.826109  3.723580  4.373710
  S    -0.900788 -0.018012  3.404789
  S    -1.596621  3.154563  3.016549
  S     1.988460  0.525863  0.459308
  S     1.329661  3.651282  0.189408
  S     1.427001  0.974880  4.539803
  S     0.748830  4.184841  4.187517
