16  
    
  C     3.120763  1.581767  3.722299
  C     3.140810  5.080640  3.396721
  C     1.924036  1.108872  3.032458
  C     1.931394  4.728333  2.711656
  N     4.219520  1.839567  2.992219
  N     4.266210  5.182385  2.673166
  N     2.144063  0.858041  1.739866
  N     2.173352  4.470630  1.444400
  N     1.303779  1.666976  5.491025
  N     1.359600  4.994912  5.203114
  S     0.613647  1.148479  4.074254
  S     0.602264  4.499548  3.815875
  S     3.719971  1.309751  1.429393
  S     3.742274  4.821430  1.159557
  S     2.957885  1.786170  5.447674
  S     3.040896  5.260423  5.111467
