16  
    
  C    -3.962003 -1.925384  1.691224
  C    -3.607476  1.976747  1.797832
  C    -5.183175 -2.427087  1.121716
  C    -4.809431  1.422514  1.149900
  N    -2.932280 -1.682657  0.875963
  N    -2.645504  2.277281  0.934593
  N    -5.056428 -2.527218 -0.196992
  N    -4.772419  1.358501 -0.193266
  N    -5.612063 -2.440332  3.629169
  N    -5.164297  1.208114  3.693171
  S    -6.479566 -2.832939  2.227048
  S    -6.084360  1.188323  2.374362
  S    -3.478307 -2.115761 -0.649134
  S    -3.253099  1.954923 -0.644546
  S    -4.059952 -1.900918  3.449333
  S    -3.796990  2.070200  3.535653
