16  
    
  C    -1.460420 -1.128889  2.208975
  C    -1.789550  2.413478  1.936352
  C    -2.756736 -1.190898  1.585529
  C    -3.049332  2.039905  1.384613
  N    -0.416587 -1.139371  1.350768
  N    -0.761482  2.456268  1.087800
  N    -2.708517 -1.571239  0.270205
  N    -3.037533  1.996901  0.068025
  N    -3.198562 -1.083796  4.110043
  N    -3.383729  2.116132  3.938952
  S    -4.064283 -1.200655  2.680423
  S    -4.274842  1.872265  2.565101
  S    -1.106720 -1.506087 -0.139277
  S    -1.426031  2.185135 -0.388124
  S    -1.511372 -0.861747  3.968721
  S    -1.804799  2.599644  3.712475
