16  
    
  C     2.433203  1.120012  3.338725
  C     2.844109  5.318431  3.858240
  C     1.304597  0.645433  2.568879
  C     1.668712  4.695195  3.319036
  N     3.583638  1.271095  2.719751
  N     3.820859  5.475959  3.017204
  N     1.581360  0.354615  1.291300
  N     1.867347  4.195229  2.112270
  N     0.529352  0.943746  5.019979
  N     1.214064  5.249903  5.801293
  S    -0.092175  0.494433  3.586790
  S     0.367499  4.765064  4.435467
  S     3.180786  0.781116  1.111034
  S     3.375286  4.762365  1.600934
  S     2.144982  1.389558  5.009189
  S     2.813007  5.730881  5.528599
