16  
    
  C    -1.012701 -0.497463  2.446266
  C    -1.098066  3.166861  2.391724
  C    -2.212020 -0.969351  1.708411
  C    -2.363995  2.760047  1.783910
  N    -0.013815 -0.118201  1.598479
  N    -0.025412  3.026728  1.626512
  N    -1.920714 -1.188616  0.403023
  N    -2.251083  2.445506  0.502871
  N    -2.749174 -1.088942  4.208500
  N    -2.959341  3.165766  4.242243
  S    -3.419535 -1.469050  2.781468
  S    -3.763932  3.052990  2.770793
  S    -0.413305 -0.654529  0.114491
  S    -0.661549  2.684875  0.102776
  S    -1.164662 -0.569719  4.218536
  S    -1.281860  3.291672  4.132528
