16  
    
  C     2.047644  0.617802  3.217706
  C     2.013173  4.224381  3.098575
  C     0.764232  0.311470  2.681755
  C     0.700783  4.078547  2.538944
  N     2.995499  0.692746  2.311676
  N     3.010691  4.291692  2.217394
  N     0.711933  0.060734  1.381042
  N     0.706630  3.877736  1.233829
  N     0.387600  0.699047  5.241467
  N     0.261210  4.230301  4.944393
  S    -0.530435  0.491640  3.791364
  S    -0.620040  3.970809  3.627508
  S     2.271897  0.335304  0.833030
  S     2.335292  3.910441  0.686030
  S     2.065973  0.828873  4.955788
  S     1.831352  4.695484  4.753329
