16  
    
  C     2.544853  1.129814  3.247557
  C     2.554081  4.650464  3.539831
  C     1.326102  0.809262  2.494842
  C     1.340135  4.379239  2.764396
  N     3.593901  1.296163  2.477363
  N     3.542454  5.043151  2.746779
  N     1.428115  0.810186  1.157140
  N     1.471111  4.309228  1.454086
  N     0.682868  0.781340  5.005794
  N     0.528040  4.431171  5.176645
  S     0.042173  0.292277  3.505488
  S    -0.002287  3.927180  3.744292
  S     3.039035  1.105566  0.845776
  S     3.053641  4.737548  1.128127
  S     2.331337  0.957047  4.993943
  S     2.116572  4.963859  5.240345
