16  
    
  C    -3.038219 -1.544616  2.265894
  C    -3.266949  1.935854  2.024996
  C    -4.284054 -1.832956  1.575657
  C    -4.456260  1.384671  1.357836
  N    -2.007269 -1.204042  1.461300
  N    -2.251621  2.106410  1.182114
  N    -4.156253 -1.988188  0.262357
  N    -4.378906  1.311596  0.010468
  N    -4.874044 -1.537669  4.063238
  N    -5.016266  1.571923  3.918038
  S    -5.676412 -1.852160  2.645740
  S    -5.791769  1.173562  2.501015
  S    -2.582231 -1.593433 -0.064722
  S    -2.836254  1.806455 -0.401777
  S    -3.187120 -1.265581  3.972883
  S    -3.373359  1.874718  3.816460
