16  
    
  C     3.016205  1.430971  3.372696
  C     3.079317  5.053679  3.366069
  C     1.794611  1.152294  2.667287
  C     1.856674  4.835120  2.594014
  N     4.071103  1.599895  2.595602
  N     4.145697  5.159468  2.571938
  N     1.916556  1.104336  1.324694
  N     2.083239  4.485886  1.300464
  N     1.252010  1.537818  5.161197
  N     1.122944  5.054526  5.088325
  S     0.387544  1.146578  3.776450
  S     0.454446  4.629053  3.609184
  S     3.494949  1.430836  0.968864
  S     3.644763  4.821010  0.965815
  S     2.916422  1.631649  5.068323
  S     2.771683  5.258619  5.097221
