16  
    
  C     2.590625  1.090879  3.325413
  C     2.612125  5.131801  3.633834
  C     1.415489  0.599619  2.583246
  C     1.423621  4.529433  3.121320
  N     3.673014  1.334842  2.609458
  N     3.613197  5.138873  2.754847
  N     1.704041  0.368535  1.296206
  N     1.513128  4.211493  1.830844
  N     0.673534  1.023042  4.969083
  N     0.970548  4.954623  5.675987
  S    -0.086420  0.493093  3.571211
  S     0.228010  4.170228  4.386257
  S     3.244820  0.851058  1.014345
  S     3.069202  4.578225  1.315358
  S     2.251166  1.377722  4.980335
  S     2.588626  5.504572  5.298010
