16  
    
  C     0.837668  0.346622  2.869267
  C     0.612733  3.616726  2.735162
  C    -0.409333 -0.221894  2.251311
  C    -0.644234  3.212029  2.110692
  N     1.778005  0.581656  1.992085
  N     1.572606  3.774493  1.828072
  N    -0.360558 -0.372317  0.932041
  N    -0.707524  3.474233  0.795132
  N    -0.804529  0.040456  4.745916
  N    -1.070158  3.232967  4.690716
  S    -1.660235 -0.449762  3.392299
  S    -1.907090  3.035151  3.281587
  S     1.202962  0.153662  0.531252
  S     0.891699  3.639380  0.338700
  S     0.750892  0.607352  4.570995
  S     0.587345  3.500042  4.445781
