16  
    
  C     1.487465  1.003719  3.306426
  C     1.503537  4.286445  3.473015
  C     0.246561  0.524843  2.735394
  C     0.166095  4.172068  2.927465
  N     2.502420  1.060735  2.445782
  N     2.361604  4.464300  2.502992
  N     0.330196  0.187857  1.447997
  N     0.059871  4.002029  1.616669
  N    -0.199670  0.817657  5.245995
  N    -0.064050  4.676530  5.414891
  S    -1.079724  0.550219  3.836316
  S    -0.989492  4.181815  4.168209
  S     1.893240  0.548153  0.983851
  S     1.667853  4.190958  1.037349
  S     1.292630  1.322172  4.991281
  S     1.511392  4.819512  5.118221
