16  
    
  C    -0.163934 -0.134902  2.694370
  C     0.195692  3.513454  2.321443
  C    -1.355618 -0.593741  2.036622
  C    -1.099268  3.141235  1.692272
  N     0.945813 -0.167950  1.950984
  N     1.166106  3.754361  1.428811
  N    -1.230683 -0.742760  0.732085
  N    -1.093091  3.236913  0.378773
  N    -2.033142 -0.530315  4.479831
  N    -1.515049  3.155079  4.221074
  S    -2.790054 -0.830433  3.028258
  S    -2.360787  2.967796  2.821955
  S     0.367650 -0.552374  0.441493
  S     0.516268  3.480382 -0.083832
  S    -0.388780 -0.306558  4.396807
  S     0.105422  3.438905  4.052232
