16  
    
  C     0.819481  0.358857  2.862702
  C     0.622302  3.604929  2.708740
  C    -0.397829 -0.240558  2.259010
  C    -0.640248  3.223788  2.133987
  N     1.758892  0.569400  2.000048
  N     1.588588  3.807301  1.840344
  N    -0.368791 -0.386336  0.936329
  N    -0.714299  3.471772  0.821803
  N    -0.804350  0.051665  4.756932
  N    -1.067418  3.232161  4.695256
  S    -1.678728 -0.432772  3.393887
  S    -1.919988  3.048621  3.299303
  S     1.191348  0.142377  0.527567
  S     0.898597  3.641933  0.327777
  S     0.752753  0.617908  4.580172
  S     0.600798  3.496811  4.430934
