16  
    
  C     2.007923  0.874442  3.026102
  C     2.201258  4.421191  3.027660
  C     0.763354  0.462435  2.422769
  C     1.026107  3.928487  2.268166
  N     3.073616  0.964952  2.197865
  N     3.380410  4.372795  2.395645
  N     0.884717  0.151795  1.131638
  N     1.310169  3.876006  0.962516
  N     0.204160  0.997910  4.909759
  N     0.238860  4.410316  4.668122
  S    -0.612067  0.722187  3.440762
  S    -0.384986  3.883732  3.277777
  S     2.499711  0.518629  0.699088
  S     2.977797  4.020947  0.836747
  S     1.847800  1.328995  4.640497
  S     1.856922  4.784823  4.742331
