16  
    
  C    -4.715579 -2.422816  1.536054
  C    -4.395671  0.905484  1.761535
  C    -5.956371 -2.770826  0.796949
  C    -5.658336  0.662017  1.100518
  N    -3.758460 -2.100513  0.711567
  N    -3.422210  1.326812  0.947315
  N    -5.882055 -2.781742 -0.527334
  N    -5.584776  0.771203 -0.236353
  N    -6.415654 -2.820019  3.314854
  N    -6.166427  0.651389  3.582283
  S    -7.253717 -3.078473  1.900576
  S    -7.094560  0.461489  2.207837
  S    -4.294623 -2.348395 -0.856499
  S    -4.104092  1.294005 -0.570278
  S    -4.807261 -2.359415  3.270621
  S    -4.615768  1.078183  3.476817
