16  
    
  C     0.646756  0.238643  3.063010
  C     0.657775  3.839280  2.911600
  C    -0.609407  0.064174  2.471556
  C    -0.562482  3.601718  2.235790
  N     1.692045  0.211861  2.234825
  N     1.706704  3.937890  2.066732
  N    -0.555434 -0.032028  1.140981
  N    -0.412763  3.198081  0.942182
  N    -1.135988  0.217577  5.020878
  N    -1.051316  3.654038  4.804698
  S    -1.950665  0.121240  3.590113
  S    -1.764535  3.197631  3.436551
  S     1.035292  0.044969  0.690462
  S     1.142335  3.576333  0.597864
  S     0.511715  0.500946  4.812875
  S     0.549446  4.205907  4.640594
