16  
    
  C    -3.850933 -2.237565  1.691911
  C    -3.561952  2.081276  1.663966
  C    -5.108002 -2.486757  1.057891
  C    -4.722873  1.432237  1.070037
  N    -2.934522 -1.865045  0.793284
  N    -2.574503  2.215698  0.752047
  N    -5.069557 -2.513865 -0.308315
  N    -4.673395  1.309417 -0.259469
  N    -5.642198 -2.502407  3.581758
  N    -5.152953  1.487070  3.557509
  S    -6.464406 -2.708145  2.183459
  S    -5.960508  0.975348  2.204588
  S    -3.532214 -2.035828 -0.723303
  S    -3.139676  1.761530 -0.695482
  S    -3.965077 -2.367989  3.429293
  S    -3.664978  2.135741  3.359454
