16  
    
  C    -2.092282 -0.991790  2.007641
  C    -2.658136  2.567423  2.126874
  C    -3.132597 -1.848684  1.436425
  C    -3.858457  2.106886  1.519007
  N    -1.152076 -0.707304  1.143152
  N    -1.673086  2.828826  1.288581
  N    -3.091655 -1.970948  0.134386
  N    -3.722282  1.708756  0.240206
  N    -3.533036 -1.876118  3.940380
  N    -4.345646  2.459179  4.034541
  S    -4.429260 -2.240841  2.594082
  S    -5.109916  1.853161  2.713273
  S    -1.658932 -1.242538 -0.343530
  S    -2.177238  2.208854 -0.215068
  S    -2.222885 -0.919848  3.716803
  S    -2.757648  2.855728  3.847481
