16  
    
  C    -3.964814 -1.914836  1.731823
  C    -3.721652  1.777309  1.781743
  C    -5.157567 -2.331586  1.024633
  C    -5.004681  1.341981  1.203244
  N    -2.949732 -1.677709  0.932680
  N    -2.684653  1.849182  0.942774
  N    -4.964129 -2.632417 -0.252217
  N    -4.962330  1.367746 -0.107794
  N    -5.838326 -1.924513  3.533811
  N    -5.493622  1.596984  3.720733
  S    -6.504550 -2.465543  2.114595
  S    -6.326967  1.153673  2.344275
  S    -3.371816 -2.142104 -0.608887
  S    -3.353459  1.636187 -0.619834
  S    -4.275533 -1.497631  3.378761
  S    -3.856010  1.741116  3.566858
