16  
    
  C    -1.592950 -1.092950  2.273657
  C    -1.839473  2.409933  2.239635
  C    -2.877332 -1.440871  1.721975
  C    -3.094057  1.984293  1.593809
  N    -0.614269 -1.057227  1.402692
  N    -0.818628  2.681726  1.407513
  N    -2.847654 -1.554810  0.417862
  N    -2.883936  1.703103  0.297136
  N    -3.243141 -0.901350  4.230776
  N    -3.555747  2.183057  4.121798
  S    -4.149812 -1.253492  2.905154
  S    -4.348101  1.797553  2.701522
  S    -1.279785 -1.345465 -0.094964
  S    -1.356162  2.175165 -0.092449
  S    -1.589145 -0.886774  4.073649
  S    -1.927671  2.586698  3.961320
