16  
    
  C    -0.183282 -0.205288  2.564133
  C    -0.009903  3.754962  2.338700
  C    -1.459602 -0.667029  2.011316
  C    -1.204586  3.187070  1.795924
  N     0.751975 -0.101454  1.648967
  N     1.077798  3.703811  1.541552
  N    -1.487158 -0.716932  0.689717
  N    -1.147031  2.893479  0.509301
  N    -1.731736 -0.324848  4.599079
  N    -1.692654  3.504823  4.296640
  S    -2.629119 -0.681959  3.249341
  S    -2.529920  3.033278  2.926952
  S     0.092408 -0.369015  0.108939
  S     0.374117  3.301300  0.036603
  S    -0.107752 -0.103830  4.316858
  S    -0.105590  3.958809  4.128981
