16  
    
  C     1.761722  0.498471  3.116187
  C     2.064355  4.273112  3.361280
  C     0.573787  0.189099  2.432766
  C     0.793269  4.026911  2.712393
  N     2.797434  0.722736  2.275781
  N     3.009233  4.738564  2.524120
  N     0.632908  0.232486  1.098439
  N     0.834493  4.121395  1.386382
  N     0.038763  0.156002  4.973705
  N     0.261940  3.997896  5.190985
  S    -0.754453 -0.172384  3.457370
  S    -0.614240  3.680668  3.817576
  S     2.216315  0.596766  0.735089
  S     2.343478  4.538547  1.019376
  S     1.634325  0.533838  4.861394
  S     1.844467  4.348535  5.102587
