16  
    
  C    -3.973745 -1.797674  1.677803
  C    -3.849724  1.576340  1.766692
  C    -5.220684 -2.164426  1.053364
  C    -5.102439  1.269399  1.135735
  N    -2.892356 -1.668967  0.877943
  N    -2.823727  1.629071  0.922703
  N    -4.991624 -2.563694 -0.164560
  N    -5.083092  1.186823 -0.181638
  N    -5.772571 -2.077499  3.489346
  N    -5.541542  1.476316  3.668045
  S    -6.617615 -2.318879  2.027876
  S    -6.415005  1.325270  2.223025
  S    -3.391528 -2.299275 -0.581572
  S    -3.452490  1.447605 -0.600926
  S    -4.187669 -1.520720  3.384167
  S    -3.887506  1.737326  3.494213
