16  
    
  C    -4.146764 -2.072030  1.863433
  C    -4.135724  1.396613  1.768636
  C    -5.479002 -2.148425  1.335966
  C    -5.424953  1.177561  1.074970
  N    -3.202432 -2.036849  0.919506
  N    -3.028186  1.265174  1.032199
  N    -5.569512 -2.466271  0.026573
  N    -5.206302  1.165956 -0.246816
  N    -5.652814 -2.207092  3.942277
  N    -6.082455  1.536705  3.499652
  S    -6.665940 -2.282334  2.616117
  S    -6.842874  1.269033  2.035471
  S    -4.025183 -2.458014 -0.472582
  S    -3.628639  1.154866 -0.537329
  S    -4.072707 -2.028657  3.554245
  S    -4.375187  1.569049  3.469617
