16  
    
  C    -0.504063 -0.490362  2.682808
  C    -0.317983  3.304168  2.639300
  C    -1.740645 -0.684527  1.950580
  C    -1.447601  2.613694  2.054791
  N     0.524973 -0.361303  1.808696
  N     0.740520  3.457974  1.851634
  N    -1.592799 -0.845230  0.616827
  N    -1.361880  2.440364  0.754749
  N    -2.367298 -0.596877  4.465734
  N    -2.172414  3.157768  4.429750
  S    -3.008500 -1.003304  2.995856
  S    -2.771699  2.367623  3.135397
  S    -0.050001 -0.544987  0.291451
  S     0.215966  2.761731  0.378543
  S    -0.754346 -0.054352  4.372054
  S    -0.669851  3.761781  4.336105
