16  
    
  C    -0.022502 -0.615275  2.585821
  C    -0.291153  3.108839  2.641332
  C    -1.271956 -1.254148  2.068515
  C    -1.511318  2.724607  2.059295
  N     0.937346 -0.584884  1.654402
  N     0.590519  3.504027  1.715576
  N    -1.176918 -1.525845  0.791256
  N    -1.508833  2.467157  0.746062
  N    -1.771732 -0.680867  4.535308
  N    -1.924773  2.897011  4.602242
  S    -2.643529 -1.160810  3.173588
  S    -2.805311  2.514428  3.211889
  S     0.278662 -1.109873  0.237593
  S     0.033416  2.901057  0.250541
  S    -0.148892 -0.333427  4.326985
  S    -0.332541  3.317590  4.418210
