16  
    
  C     1.568422  0.709296  2.834107
  C     0.952180  3.817831  2.541649
  C     0.381822  0.195192  2.241196
  C    -0.338482  3.570164  1.897639
  N     2.592293  0.783502  1.972414
  N     1.945404  3.991945  1.660720
  N     0.501073 -0.178976  0.965032
  N    -0.155269  3.291260  0.631601
  N    -0.180437  0.700084  4.694506
  N    -0.807147  3.553746  4.428421
  S    -0.949379  0.219382  3.351036
  S    -1.637229  3.181349  3.001486
  S     2.051749  0.219774  0.533505
  S     1.340913  3.716854  0.183486
  S     1.344315  1.140963  4.539275
  S     0.684821  4.098402  4.197033
