16  
    
  C     2.494889  1.110457  3.302947
  C     2.985475  5.296148  3.833454
  C     1.380940  0.580241  2.583610
  C     1.670844  5.172030  3.244341
  N     3.555787  1.313910  2.551609
  N     3.974179  5.182677  2.944142
  N     1.513425  0.351353  1.278148
  N     1.646331  4.668103  1.998444
  N     0.697797  0.677659  5.091567
  N     1.298006  5.535817  5.755235
  S     0.046903  0.289397  3.578778
  S     0.432964  5.409919  4.396492
  S     3.055755  0.840012  0.976793
  S     3.223210  4.664963  1.473050
  S     2.219559  1.333424  5.002780
  S     2.919334  5.739151  5.540844
