16  
    
  C     3.118158  1.589249  3.713824
  C     3.148295  5.213922  3.404833
  C     1.950410  1.106162  3.033557
  C     1.948885  4.675900  2.733982
  N     4.189629  1.831312  2.986320
  N     4.274257  5.178306  2.694881
  N     2.183685  0.819668  1.761106
  N     2.168749  4.473832  1.422570
  N     1.309291  1.658967  5.478011
  N     1.355580  4.921000  5.228794
  S     0.586534  1.143807  4.099702
  S     0.632478  4.474801  3.825777
  S     3.746774  1.301798  1.418393
  S     3.750514  4.820960  1.117914
  S     2.938007  1.816859  5.410072
  S     2.987631  5.263330  5.090636
