16  
    
  C    -5.129525 -2.458648  1.879769
  C    -5.342818  0.966043  1.605699
  C    -6.394376 -2.765587  1.246924
  C    -6.674119  0.788512  0.973089
  N    -4.103257 -2.513100  1.030892
  N    -4.300525  1.121530  0.779497
  N    -6.348928 -3.154157 -0.024256
  N    -6.650886  0.654000 -0.376838
  N    -6.899257 -2.045450  3.628201
  N    -7.170517  1.064415  3.435683
  S    -7.670490 -2.763633  2.364124
  S    -8.016230  0.957569  2.069317
  S    -4.738679 -2.915811 -0.437576
  S    -5.019488  0.911696 -0.760148
  S    -5.253901 -2.117719  3.593383
  S    -5.550382  1.343083  3.261359
