16  
    
  C    -3.409453 -2.260551  1.922434
  C    -3.819097  2.012886  1.897852
  C    -4.521557 -2.879120  1.241324
  C    -4.673421  1.010731  1.290147
  N    -2.414961 -1.983678  1.083720
  N    -2.764188  2.354395  1.193444
  N    -4.283315 -3.343029  0.033528
  N    -4.437228  0.753172  0.013048
  N    -5.317083 -2.483726  3.707747
  N    -5.421203  1.326130  3.646244
  S    -5.958581 -3.066474  2.272489
  S    -5.962994  0.499835  2.327547
  S    -2.749640 -2.779951 -0.334194
  S    -3.062021  1.625864 -0.316079
  S    -3.771125 -1.961079  3.569498
  S    -4.174658  2.449591  3.561427
