16  
    
  C     2.579501  0.958931  3.107397
  C     2.473826  4.913270  3.494457
  C     1.379944  0.530066  2.430359
  C     1.282005  4.462390  2.795950
  N     3.586645  1.206269  2.276022
  N     3.526020  5.202446  2.727496
  N     1.546710  0.374960  1.127684
  N     1.508028  4.232047  1.482843
  N     0.902624  0.639204  4.962957
  N     0.745664  4.477261  5.455349
  S     0.032674  0.458776  3.602648
  S    -0.028587  4.082289  3.968457
  S     3.148931  0.921954  0.773787
  S     3.106137  4.649208  1.217468
  S     2.447631  1.203392  4.807536
  S     2.283563  5.140247  5.220524
