16  
    
  C     1.572416  0.712388  2.834368
  C     0.952600  3.814953  2.542530
  C     0.383365  0.191608  2.244646
  C    -0.331647  3.570274  1.898877
  N     2.594290  0.783841  1.972874
  N     1.941809  3.992422  1.656051
  N     0.500729 -0.176157  0.955514
  N    -0.157844  3.286187  0.629539
  N    -0.173365  0.698047  4.692582
  N    -0.810127  3.552754  4.432635
  S    -0.950644  0.213595  3.351871
  S    -1.637858  3.181629  3.003800
  S     2.048477  0.228364  0.534557
  S     1.339372  3.716222  0.181075
  S     1.349252  1.139343  4.535367
  S     0.686326  4.102512  4.196478
