16  
    
  C     3.364924  1.476233  3.599816
  C     3.073861  5.181537  3.423505
  C     2.089784  0.991567  3.087851
  C     1.942458  4.633127  2.744134
  N     4.315950  1.650323  2.712063
  N     4.100985  5.537415  2.619224
  N     2.100330  0.818004  1.784798
  N     2.173122  4.263125  1.485634
  N     1.783452  1.333641  5.634475
  N     1.200370  4.868721  5.148006
  S     0.882392  0.991894  4.268852
  S     0.619805  4.209714  3.703985
  S     3.595331  1.261378  1.208978
  S     3.571776  4.929209  1.114340
  S     3.352395  1.905096  5.276650
  S     2.749152  5.461809  5.077665
