16  
    
  C     3.132789  1.725766  3.238475
  C     3.096007  5.117760  3.383698
  C     1.858942  1.491891  2.604634
  C     1.831775  4.857945  2.708117
  N     4.246441  1.535545  2.520727
  N     4.172182  5.048313  2.593424
  N     1.986595  1.147987  1.330662
  N     2.017884  4.597143  1.432108
  N     1.498749  1.545145  5.209951
  N     1.282879  5.013484  5.262558
  S     0.613654  1.562350  3.805819
  S     0.495197  4.552675  3.860216
  S     3.588884  1.127392  0.971400
  S     3.603204  4.790521  1.037507
  S     3.137898  1.959685  4.984347
  S     2.951310  5.226622  5.132307
