16  
    
  C    -0.441014 -0.407471  2.596081
  C    -0.333879  3.334782  2.632650
  C    -1.599059 -0.857753  1.907086
  C    -1.526643  2.707092  2.052457
  N     0.672389 -0.314580  1.872989
  N     0.696244  3.324585  1.804554
  N    -1.575233 -0.832015  0.579746
  N    -1.404173  2.505190  0.747911
  N    -2.314722 -0.536363  4.414146
  N    -2.184195  3.196960  4.499414
  S    -2.993492 -0.981445  2.963966
  S    -2.829447  2.439443  3.138189
  S     0.093466 -0.495867  0.289305
  S     0.171849  2.843987  0.325776
  S    -0.763602 -0.057824  4.315078
  S    -0.575607  3.717746  4.252029
