16  
    
  C     0.797346  0.352284  3.059776
  C     0.542251  3.904575  2.957334
  C    -0.447088  0.126912  2.402237
  C    -0.640745  3.372328  2.410265
  N     1.830501  0.549483  2.232493
  N     1.551777  3.991423  2.105229
  N    -0.365311 -0.187469  1.133224
  N    -0.593520  2.950343  1.186695
  N    -0.993986  0.259359  4.889678
  N    -1.134901  3.909375  4.873187
  S    -1.820141  0.192714  3.445159
  S    -1.975209  3.312008  3.565230
  S     1.187155  0.137664  0.755567
  S     0.958090  3.324908  0.657424
  S     0.647261  0.602222  4.734419
  S     0.472522  4.211860  4.658752
