16  
    
  C    -4.803974 -2.500675  1.895840
  C    -5.216089  1.221286  1.808761
  C    -5.975805 -3.073057  1.263843
  C    -6.365677  0.569100  1.155212
  N    -3.807295 -2.234069  1.047243
  N    -4.174862  1.326695  1.013757
  N    -5.876902 -3.154302 -0.069580
  N    -6.238367  0.193315 -0.124448
  N    -6.684390 -2.826340  3.797555
  N    -7.031627  1.014234  3.659381
  S    -7.376477 -3.252950  2.326910
  S    -7.703174  0.399502  2.180555
  S    -4.331865 -2.662666 -0.470453
  S    -4.655100  0.716399 -0.490245
  S    -5.101924 -2.287140  3.587563
  S    -5.350385  1.361273  3.530418
