16  
    
  C    -3.531841 -2.582489  1.880501
  C    -3.615540  1.796198  1.822405
  C    -4.707993 -3.072967  1.210918
  C    -4.656064  1.017536  1.254750
  N    -2.471055 -2.453897  1.094418
  N    -2.683258  2.196522  0.985266
  N    -4.566803 -3.044154 -0.092767
  N    -4.366660  0.629644  0.017091
  N    -5.429851 -2.606053  3.687075
  N    -5.375561  1.503695  3.654450
  S    -6.074712 -3.317970  2.305868
  S    -5.904467  0.656203  2.290773
  S    -3.001707 -2.687206 -0.447328
  S    -3.003190  1.468386 -0.402933
  S    -3.856831 -2.272762  3.541262
  S    -3.827216  2.211314  3.488435
