16  
    
  C    -5.910379 -3.007332  1.362148
  C    -6.002340  0.895496  1.310330
  C    -7.073421 -3.402867  0.607456
  C    -7.257465  0.582537  0.638930
  N    -4.796042 -2.962801  0.668844
  N    -4.916454  1.040806  0.519464
  N    -6.815095 -3.444745 -0.714880
  N    -7.075338  0.551324 -0.679596
  N    -7.694849 -3.337625  3.099864
  N    -7.795170  0.270902  3.149758
  S    -8.543848 -3.476872  1.637635
  S    -8.605899  0.242736  1.766730
  S    -5.166219 -3.258698 -0.908157
  S    -5.481393  0.799767 -1.014587
  S    -6.094837 -2.905582  3.070869
  S    -6.191931  0.646778  3.096861
