16  
    
  C     0.857189  0.231560  2.861264
  C     0.515657  3.701349  2.930741
  C    -0.332289 -0.292524  2.270855
  C    -0.776259  3.458738  2.412559
  N     1.899911  0.364653  2.024150
  N     1.496594  3.915233  2.021031
  N    -0.279098 -0.473908  0.944178
  N    -0.885651  3.749757  1.115123
  N    -0.862301  0.066264  4.832013
  N    -1.093951  3.381415  4.940743
  S    -1.667316 -0.171759  3.406152
  S    -2.096036  3.338038  3.570000
  S     1.308916 -0.050609  0.495891
  S     0.706493  3.865136  0.550347
  S     0.724206  0.395555  4.660928
  S     0.513097  3.446820  4.684950
