16  
    
  C    -2.114761 -1.124157  2.019453
  C    -2.674284  2.580036  2.127915
  C    -3.230554 -1.860072  1.438030
  C    -3.870577  2.010273  1.559530
  N    -1.204414 -0.618913  1.158429
  N    -1.652777  2.822010  1.315239
  N    -3.091550 -2.002236  0.109087
  N    -3.688554  1.686151  0.303665
  N    -3.597549 -1.859132  3.938681
  N    -4.387020  2.427618  4.085083
  S    -4.445515 -2.280658  2.597324
  S    -5.127662  1.827355  2.733078
  S    -1.674301 -1.222182 -0.323192
  S    -2.194121  2.255781 -0.196664
  S    -2.206425 -0.912123  3.709487
  S    -2.771820  2.851517  3.850063
