16  
    
  C    -0.434470 -0.767212  2.735916
  C    -0.378796  3.387073  2.691800
  C    -1.721166 -1.108201  2.228617
  C    -1.449508  2.622354  2.063032
  N     0.483081 -0.488825  1.771951
  N     0.713754  3.552438  1.966587
  N    -1.699221 -1.440274  0.935108
  N    -1.168667  2.223634  0.836702
  N    -2.143548 -0.763420  4.698313
  N    -2.259879  3.059988  4.431651
  S    -3.059072 -1.083298  3.296612
  S    -2.797472  2.306818  3.076424
  S    -0.248687 -0.947847  0.320086
  S     0.302738  2.861590  0.460893
  S    -0.550517 -0.370676  4.397675
  S    -0.744975  3.707593  4.436041
