16  
    
  C     0.107460  0.045753  2.748724
  C     0.055301  3.584452  2.664540
  C    -1.007351 -0.622043  2.133756
  C    -1.051075  3.032244  1.983695
  N     1.125294  0.197526  1.906504
  N     1.149381  3.781187  1.922840
  N    -0.941615 -0.682718  0.803146
  N    -0.816682  2.700503  0.706084
  N    -1.562811 -0.284413  4.586359
  N    -1.753951  3.214907  4.476549
  S    -2.266962 -0.919485  3.218883
  S    -2.334256  2.526508  3.121865
  S     0.594707 -0.180258  0.385324
  S     0.670888  3.347430  0.392319
  S    -0.042649  0.383871  4.404760
  S    -0.207387  3.943638  4.379767
