16  
    
  C     1.559787  1.008112  3.212910
  C     1.882518  4.644568  3.304593
  C     0.352166  0.545425  2.519810
  C     0.700364  4.041524  2.719751
  N     2.610769  1.155301  2.437526
  N     2.935269  4.666610  2.453268
  N     0.503887  0.420694  1.209259
  N     0.806056  3.662690  1.463881
  N    -0.299557  0.650157  4.973390
  N     0.128910  4.549268  5.227297
  S    -0.926740  0.125361  3.618443
  S    -0.703775  4.150824  3.805893
  S     2.084880  0.755802  0.910564
  S     2.303267  4.109341  1.001299
  S     1.265562  1.234688  4.941924
  S     1.755274  4.862639  5.047696
