16  
    
  C    -4.689482 -2.518996  1.656495
  C    -4.868546  1.242362  1.534743
  C    -5.933332 -3.125270  1.154496
  C    -5.999624  0.668467  0.814485
  N    -3.745002 -2.292267  0.749202
  N    -3.804673  1.437382  0.756098
  N    -5.966455 -3.160473 -0.170940
  N    -5.790558  0.330994 -0.462006
  N    -6.308151 -2.777170  3.688219
  N    -6.585522  0.766956  3.373724
  S    -7.238635 -3.009119  2.305655
  S    -7.241239  0.254108  1.929072
  S    -4.449956 -2.657245 -0.710101
  S    -4.244167  0.859963 -0.735223
  S    -4.776462 -2.157707  3.340360
  S    -4.989779  1.302382  3.270101
