16  
    
  C     3.606866  2.002935  3.571169
  C     3.256073  5.413168  3.495296
  C     2.361121  1.554408  2.929885
  C     2.103169  4.802433  2.877193
  N     4.714535  2.211887  2.844884
  N     4.301260  5.525773  2.673532
  N     2.550982  1.314907  1.626313
  N     2.176889  4.721925  1.542406
  N     1.935692  1.505754  5.495663
  N     1.618893  4.978716  5.405832
  S     1.067467  1.261915  4.100805
  S     0.789031  4.494853  4.011762
  S     4.178732  1.704954  1.284862
  S     3.738813  5.157836  1.139947
  S     3.457596  2.172498  5.291183
  S     3.214416  5.354407  5.262498
