16  
    
  C    -0.160244 -0.142273  2.705467
  C     0.191975  3.431464  2.287661
  C    -1.365722 -0.634144  2.054367
  C    -1.103066  3.186656  1.678569
  N     0.975547 -0.147793  1.948387
  N     1.104311  3.794655  1.435120
  N    -1.194818 -0.787384  0.729966
  N    -1.065758  3.184153  0.368078
  N    -2.058731 -0.564674  4.472022
  N    -1.508581  3.095766  4.198576
  S    -2.790219 -0.844323  3.009588
  S    -2.348544  2.949357  2.834030
  S     0.379415 -0.545678  0.483059
  S     0.549549  3.474090 -0.077780
  S    -0.407036 -0.306757  4.391226
  S     0.115870  3.424243  4.060605
