16  
    
  C    -1.765758 -1.132783  2.478544
  C    -1.928456  2.417456  2.566576
  C    -3.055124 -1.449319  1.845051
  C    -3.105536  1.951370  1.878767
  N    -0.821385 -0.887016  1.598543
  N    -0.858731  2.633150  1.791423
  N    -2.923327 -1.674790  0.553548
  N    -2.970230  1.980879  0.552491
  N    -3.602453 -1.172023  4.300926
  N    -3.700317  2.113875  4.395668
  S    -4.437829 -1.667093  2.881738
  S    -4.452603  1.980482  2.938720
  S    -1.406754 -1.242820  0.121072
  S    -1.432030  2.467333  0.223789
  S    -1.944069 -0.885357  4.127185
  S    -2.083062  2.436790  4.314159
