16  
    
  C     3.125542  1.596400  3.714681
  C     3.153552  5.240102  3.406998
  C     1.967637  1.106864  3.035606
  C     1.964842  4.667308  2.738984
  N     4.177210  1.821655  2.973307
  N     4.270166  5.181543  2.693894
  N     2.193720  0.810412  1.764029
  N     2.161562  4.474567  1.417945
  N     1.310395  1.652870  5.478438
  N     1.359062  4.900692  5.238542
  S     0.574473  1.142280  4.106514
  S     0.638953  4.466795  3.826488
  S     3.754558  1.299826  1.417419
  S     3.754487  4.819893  1.106398
  S     2.933590  1.826957  5.399000
  S     2.969684  5.265048  5.088391
