16  
    
  C    -0.205238 -0.324167  2.704236
  C     0.211651  3.557962  2.291425
  C    -1.472165 -0.444540  1.983509
  C    -1.068546  3.267017  1.710125
  N     0.845705 -0.201179  1.884626
  N     1.210890  3.611385  1.450429
  N    -1.294464 -0.680180  0.666982
  N    -1.078967  3.225245  0.399170
  N    -1.971220 -0.448139  4.526023
  N    -1.570412  3.295975  4.267122
  S    -2.740757 -0.788937  3.082965
  S    -2.408923  2.994836  2.811347
  S     0.349556 -0.535174  0.310580
  S     0.430203  3.525296 -0.073208
  S    -0.337169 -0.269004  4.461158
  S     0.088655  3.522325  4.050657
