16  
    
  C    -0.768223 -0.834363  2.402009
  C    -0.864404  3.044906  2.437690
  C    -2.018138 -1.229768  1.727677
  C    -2.152681  2.720756  1.832556
  N     0.312605 -0.599212  1.677978
  N     0.151911  3.190917  1.590613
  N    -1.789610 -1.486662  0.445702
  N    -2.046355  2.647801  0.521694
  N    -2.689627 -0.887783  4.140328
  N    -2.607563  2.938553  4.421349
  S    -3.323239 -1.641561  2.787292
  S    -3.405494  2.658244  2.972876
  S    -0.184384 -1.033613  0.113270
  S    -0.457837  2.823429  0.100898
  S    -1.088183 -0.583791  4.107903
  S    -0.976856  3.380715  4.168397
