16  
    
  C    -3.343198 -2.126483  1.903524
  C    -3.742057  1.960300  1.965902
  C    -4.456926 -2.805615  1.263057
  C    -4.660214  1.042832  1.290926
  N    -2.268483 -2.005948  1.140727
  N    -2.731613  2.404448  1.224344
  N    -4.272518 -3.099716 -0.048513
  N    -4.378343  0.758591  0.012290
  N    -5.155361 -2.349163  3.714747
  N    -5.628766  1.412477  3.718030
  S    -5.869423 -2.911908  2.276104
  S    -6.001103  0.588676  2.382938
  S    -2.715815 -2.564883 -0.351219
  S    -2.987110  1.643157 -0.320881
  S    -3.628479 -1.665479  3.530282
  S    -4.245600  2.263699  3.562469
