16  
    
  C     1.342879  0.297307  3.108781
  C     0.962437  4.069480  2.603347
  C     0.108468  0.144489  2.337391
  C    -0.101713  3.361881  1.843790
  N     2.457770  0.269658  2.431277
  N     2.041599  4.401713  1.917375
  N     0.327294 -0.086236  1.050848
  N     0.155662  3.195605  0.544509
  N    -0.709291  0.515377  4.702614
  N    -0.964832  3.821746  4.218368
  S    -1.376833  0.299772  3.201205
  S    -1.531633  3.239159  2.801979
  S     1.958933 -0.032412  0.806129
  S     1.737406  3.787676  0.356184
  S     0.941486  0.759728  4.769736
  S     0.626418  4.361506  4.313722
