16  
    
  C    -3.040707 -1.610622  2.287399
  C    -3.332421  1.952416  2.025634
  C    -4.289761 -1.836322  1.582059
  C    -4.546376  1.481682  1.447824
  N    -2.007152 -1.423850  1.491369
  N    -2.350646  2.238096  1.174231
  N    -4.165566 -2.100557  0.271168
  N    -4.556767  1.369020  0.124518
  N    -4.894015 -1.668315  4.143150
  N    -4.890675  1.440827  3.937671
  S    -5.646281 -1.756655  2.707315
  S    -5.771115  1.060800  2.617177
  S    -2.581463 -1.695297 -0.052272
  S    -3.045660  1.760133 -0.292151
  S    -3.208693 -1.515506  4.023198
  S    -3.321844  1.861374  3.689806
