16  
    
  C    -5.403932 -2.110399  1.562688
  C    -5.300379  1.116467  1.389619
  C    -6.599570 -2.599658  0.942169
  C    -6.511931  0.584165  0.819096
  N    -4.395868 -1.897806  0.752180
  N    -4.290130  1.192952  0.551473
  N    -6.509189 -2.878333 -0.342900
  N    -6.384602  0.450864 -0.488966
  N    -7.100961 -2.564237  3.500033
  N    -7.104034  0.928441  3.274498
  S    -7.924102 -2.871911  2.078331
  S    -7.896671  0.520280  1.898123
  S    -4.899766 -2.506852 -0.759634
  S    -4.893577  0.889811 -0.951809
  S    -5.501275 -2.089292  3.280946
  S    -5.482717  1.377910  3.094289
