16  
    
  C    -4.151630 -2.079860  1.858312
  C    -4.134173  1.376726  1.794772
  C    -5.464405 -2.147967  1.326494
  C    -5.419652  1.188704  1.068247
  N    -3.189528 -2.048141  0.911001
  N    -3.028058  1.260769  1.041165
  N    -5.564677 -2.452660  0.024120
  N    -5.216993  1.162278 -0.252120
  N    -5.657182 -2.189897  3.939553
  N    -6.074255  1.532143  3.492885
  S    -6.673164 -2.283042  2.611565
  S    -6.841692  1.270569  2.016942
  S    -4.012690 -2.460706 -0.494741
  S    -3.632192  1.155187 -0.543919
  S    -4.067265 -2.019213  3.538931
  S    -4.354901  1.581178  3.458613
