16  
    
  C     3.306691  1.669009  3.258204
  C     3.140805  5.193286  3.415569
  C     1.975005  1.569553  2.700744
  C     1.900362  4.742442  2.832721
  N     4.312446  1.435936  2.431503
  N     4.143536  5.168538  2.546891
  N     1.986206  1.295753  1.401787
  N     1.875064  4.626991  1.515547
  N     1.610686  1.584763  5.197349
  N     1.367619  5.024001  5.252160
  S     0.666274  1.592573  3.843853
  S     0.605717  4.539816  3.876814
  S     3.571341  1.135786  0.994997
  S     3.487255  4.667983  1.126739
  S     3.180409  2.003123  5.007127
  S     2.994457  5.214650  5.161522
