16  
    
  C     3.319959  1.472488  3.585976
  C     3.090964  5.141761  3.404082
  C     2.053075  0.979306  3.070084
  C     1.953923  4.600344  2.760164
  N     4.337713  1.637580  2.741480
  N     4.084666  5.543345  2.603203
  N     2.069816  0.809939  1.743658
  N     2.176937  4.271884  1.463203
  N     1.757071  1.351865  5.620791
  N     1.175225  4.918175  5.127701
  S     0.880571  0.993700  4.269873
  S     0.620055  4.189982  3.707814
  S     3.606000  1.239088  1.218588
  S     3.587178  4.940139  1.117252
  S     3.320832  1.926194  5.271105
  S     2.760440  5.450344  5.101410
