16  
    
  C     1.809554  0.572243  3.066359
  C     1.942986  4.401819  3.388662
  C     0.548291  0.229294  2.430289
  C     0.689948  3.990118  2.750314
  N     2.811280  0.810087  2.202042
  N     2.999053  4.443046  2.558099
  N     0.570946  0.165431  1.117158
  N     0.728259  4.148613  1.423326
  N     0.011509  0.268397  4.921443
  N     0.168740  3.975882  5.276314
  S    -0.720664 -0.092375  3.572521
  S    -0.540351  3.706294  3.765761
  S     2.171679  0.526258  0.672924
  S     2.344256  4.507520  0.983417
  S     1.653853  0.451854  4.797584
  S     1.818316  4.301643  5.108450
