16  
    
  C    -1.480241 -1.223469  2.675580
  C    -1.649472  2.670166  2.366607
  C    -2.631461 -1.579051  1.905368
  C    -2.826152  2.155911  1.678357
  N    -0.415508 -0.796459  2.038664
  N    -0.542873  2.737764  1.629147
  N    -2.379280 -1.715528  0.638278
  N    -2.589376  1.830014  0.402724
  N    -3.473290 -1.431602  4.352137
  N    -3.535532  2.438031  4.154045
  S    -4.050400 -1.900657  2.802800
  S    -4.260271  2.116427  2.673797
  S    -0.809701 -1.174647  0.444797
  S    -1.004119  2.274796  0.098049
  S    -1.805024 -1.236319  4.405597
  S    -1.917944  2.854712  4.123468
