16  
    
  C    -1.413816 -1.165578  2.189189
  C    -1.786457  2.413857  1.950660
  C    -2.751193 -1.251980  1.559784
  C    -3.021854  2.035979  1.367139
  N    -0.422368 -1.192148  1.312495
  N    -0.770985  2.381883  1.080637
  N    -2.684416 -1.516951  0.277485
  N    -3.039647  1.999061  0.015826
  N    -3.203788 -1.088084  4.110474
  N    -3.371678  2.152923  3.911828
  S    -4.070599 -1.193339  2.660589
  S    -4.255308  1.861581  2.549918
  S    -1.100083 -1.506209 -0.157830
  S    -1.434293  2.217272 -0.400221
  S    -1.526987 -0.831596  3.961852
  S    -1.799771  2.587312  3.692174
