16  
    
  C    -2.986032 -1.329411  2.119153
  C    -3.201871  1.805296  1.975604
  C    -4.234697 -1.687407  1.486028
  C    -4.384114  1.377631  1.280094
  N    -1.919219 -1.170945  1.314525
  N    -2.060929  1.907259  1.266586
  N    -4.115268 -1.914971  0.194153
  N    -4.210434  1.357685 -0.049584
  N    -4.775447 -1.681698  4.039731
  N    -5.076681  1.624439  3.710028
  S    -5.545397 -1.988946  2.638611
  S    -5.804039  1.241295  2.224010
  S    -2.556499 -1.561601 -0.218637
  S    -2.630313  1.686248 -0.322543
  S    -3.215701 -1.072632  3.839043
  S    -3.428925  1.981369  3.715034
