16  
    
  C    -0.561481 -0.269418  2.637727
  C    -0.377026  3.372532  2.675554
  C    -1.832789 -0.762992  2.040685
  C    -1.425394  2.598987  2.070463
  N     0.522484 -0.291765  1.818360
  N     0.669653  3.475113  1.886429
  N    -1.780689 -0.877729  0.719650
  N    -1.161253  2.168881  0.858783
  N    -2.270206 -0.739779  4.537363
  N    -2.272448  3.095632  4.491267
  S    -3.174147 -1.030067  3.148521
  S    -2.770935  2.288026  3.098375
  S    -0.153793 -0.690894  0.315726
  S     0.337780  2.792167  0.436125
  S    -0.726252 -0.176725  4.353761
  S    -0.685380  3.776879  4.357646
