16  
    
  C     3.202363  1.624530  3.611378
  C     3.105474  5.206583  3.397794
  C     2.000190  1.139713  3.033096
  C     1.988191  4.493571  2.755699
  N     4.227250  1.641583  2.756445
  N     4.181130  5.339263  2.641939
  N     2.113050  0.830451  1.757594
  N     2.146736  4.372661  1.462667
  N     1.463355  1.455667  5.479256
  N     1.301943  4.861962  5.158611
  S     0.708893  1.033080  4.086032
  S     0.659476  4.213989  3.733810
  S     3.690067  1.096777  1.377576
  S     3.700054  4.940339  1.112508
  S     2.973514  2.061447  5.340054
  S     2.873879  5.364743  5.091975
