16  
    
  C     2.180977  1.064744  3.446979
  C     2.059437  5.032644  3.131262
  C     0.899107  0.678150  2.859489
  C     0.886573  4.474095  2.461884
  N     3.203726  1.192978  2.632462
  N     3.123232  5.294216  2.374014
  N     0.985588  0.490789  1.557903
  N     1.047365  4.475647  1.139158
  N     0.489277  1.043281  5.401195
  N     0.364457  4.408361  4.965303
  S    -0.374362  0.484003  4.088321
  S    -0.508255  4.145620  3.540246
  S     2.572963  0.817236  1.115258
  S     2.612328  4.910875  0.823218
  S     2.202307  1.273247  5.131378
  S     1.936661  4.779513  4.861403
