16  
    
  C    -2.651839 -1.648839  1.897935
  C    -3.132855  1.908782  1.778105
  C    -3.945603 -1.954262  1.331702
  C    -4.269917  1.366193  1.010621
  N    -1.573441 -1.801683  1.132799
  N    -2.136145  2.358520  1.005050
  N    -3.847594 -2.143799  0.020307
  N    -3.978809  1.188125 -0.271538
  N    -4.315901 -1.657284  3.858909
  N    -5.041882  1.564753  3.439547
  S    -5.220228 -1.879741  2.508040
  S    -5.678710  1.065930  1.992285
  S    -2.236914 -2.064039 -0.403940
  S    -2.457462  1.870852 -0.543437
  S    -2.683692 -1.477340  3.616426
  S    -3.494108  2.213885  3.417010
