16  
    
  C    -5.326964 -2.663247  1.363830
  C    -5.428906  1.052979  1.264570
  C    -6.496344 -3.285015  0.797896
  C    -6.567440  0.466394  0.574049
  N    -4.403556 -2.440644  0.434551
  N    -4.372560  1.444100  0.549476
  N    -6.503028 -3.432866 -0.504279
  N    -6.450576  0.424141 -0.737915
  N    -6.919571 -3.033564  3.365984
  N    -7.246851  0.493062  3.112195
  S    -7.711662 -3.518905  1.943735
  S    -7.920876  0.138347  1.651196
  S    -5.066142 -2.826565 -0.998382
  S    -4.946485  1.150250 -1.028894
  S    -5.339664 -2.588431  3.099327
  S    -5.725001  1.150334  2.969214
