16  
    
  C     2.755148  1.120603  3.568097
  C     2.940548  4.913012  3.671438
  C     1.581039  0.731861  2.837379
  C     1.627700  4.898619  3.057713
  N     3.727397  1.567378  2.749786
  N     3.938080  4.854961  2.790454
  N     1.726553  0.790965  1.521221
  N     1.632007  4.866047  1.729666
  N     0.765217  0.838278  5.253473
  N     1.272309  5.483273  5.465315
  S     0.100778  0.446098  3.770551
  S     0.310721  5.231695  4.151733
  S     3.270527  1.381317  1.244182
  S     3.225156  4.863407  1.324961
  S     2.413460  1.052036  5.254306
  S     2.912729  5.317148  5.337377
