16  
    
  C    -4.174119 -2.003931  1.807928
  C    -4.186743  1.521789  1.884308
  C    -5.428228 -2.448843  1.146553
  C    -5.378680  0.953731  1.346297
  N    -3.169852 -2.061958  0.927224
  N    -3.226273  1.693974  0.994808
  N    -5.366323 -2.772012 -0.140271
  N    -5.271957  0.519755  0.092585
  N    -6.019609 -2.021072  3.633517
  N    -5.974729  1.709031  3.737725
  S    -6.839331 -2.451306  2.227769
  S    -6.719450  0.928383  2.450631
  S    -3.777403 -2.546700 -0.561555
  S    -3.774424  1.050388 -0.387417
  S    -4.386862 -1.497210  3.481712
  S    -4.320443  2.132996  3.536740
