16  
    
  C    -0.136845 -0.410877  2.568747
  C    -0.048781  3.322436  2.575753
  C    -1.243233 -1.021349  1.919182
  C    -1.101217  2.577978  1.854212
  N     0.967422 -0.154739  1.809970
  N     0.956509  3.659457  1.748174
  N    -1.093627 -1.086864  0.591199
  N    -0.961719  2.650929  0.528782
  N    -1.920595 -0.956466  4.396468
  N    -1.848762  2.958382  4.324280
  S    -2.648802 -1.394766  2.948082
  S    -2.434709  2.297104  2.874192
  S     0.429553 -0.528692  0.315178
  S     0.580023  3.199151  0.228556
  S    -0.385736 -0.451456  4.277952
  S    -0.280973  3.524687  4.265538
