16  
    
  C     0.682301  0.278241  3.034578
  C     0.788063  3.690071  2.811957
  C    -0.635848 -0.017924  2.384191
  C    -0.551918  3.361800  2.270981
  N     1.649061  0.422723  2.150358
  N     1.679107  4.055843  1.889945
  N    -0.558563 -0.311353  1.093448
  N    -0.509215  3.328677  0.965484
  N    -1.025433  0.282994  4.892311
  N    -1.012724  3.562511  4.746047
  S    -1.899990 -0.056144  3.507786
  S    -1.871753  3.235846  3.422115
  S     1.032769 -0.000989  0.689610
  S     0.991161  3.682780  0.448965
  S     0.652108  0.485102  4.753815
  S     0.650326  3.855580  4.562544
