16  
    
  C    -5.082885 -2.417812  1.873653
  C    -5.436594  1.108132  1.600597
  C    -6.312668 -2.855624  1.327385
  C    -6.704829  0.882112  1.013216
  N    -4.014466 -2.506174  1.036655
  N    -4.390562  1.063574  0.761339
  N    -6.221723 -3.155748  0.030745
  N    -6.569806  0.702643 -0.311214
  N    -6.882978 -2.145684  3.761157
  N    -7.182449  1.087957  3.512152
  S    -7.718916 -2.750984  2.407082
  S    -8.063768  0.875722  2.033507
  S    -4.643042 -3.066697 -0.436617
  S    -5.017168  0.866900 -0.724644
  S    -5.219553 -2.183228  3.627322
  S    -5.514585  1.287995  3.322368
