16  
    
  C    -4.886896 -2.473556  1.893416
  C    -5.224602  1.039282  1.803403
  C    -6.044585 -3.048910  1.274085
  C    -6.432289  0.610195  1.201826
  N    -3.814484 -2.327754  1.120614
  N    -4.211902  1.274950  0.945042
  N    -5.872137 -3.155962 -0.043085
  N    -6.213190  0.242659 -0.063934
  N    -6.713737 -2.651244  3.685798
  N    -7.065314  1.032276  3.571577
  S    -7.431390 -3.279220  2.322050
  S    -7.824785  0.457750  2.208855
  S    -4.341655 -2.730951 -0.416397
  S    -4.735559  0.772091 -0.515125
  S    -5.066413 -2.328937  3.616629
  S    -5.398889  1.349855  3.507146
