16  
    
  C    -5.400105 -2.494200  1.363223
  C    -5.459743  1.219549  1.262901
  C    -6.690048 -2.811293  0.763462
  C    -6.559179  0.596809  0.635168
  N    -4.398920 -2.286907  0.535299
  N    -4.397898  1.459129  0.480253
  N    -6.623941 -3.063088 -0.560224
  N    -6.415760  0.529486 -0.691257
  N    -6.959392 -2.950207  3.342039
  N    -7.134818  0.646733  3.115487
  S    -7.820475 -3.226557  1.975884
  S    -7.783394  0.091701  1.731967
  S    -5.024714 -2.610715 -1.006193
  S    -4.888764  1.014414 -1.055472
  S    -5.443347 -2.270314  3.087573
  S    -5.610178  1.170433  3.004781
