16  
    
  C    -2.887729 -1.597840  1.989525
  C    -2.410739  1.987848  2.064227
  C    -4.144091 -2.001065  1.424569
  C    -3.719171  1.773340  1.433376
  N    -1.875331 -1.358123  1.168996
  N    -1.402071  1.849355  1.189549
  N    -4.054899 -2.150091  0.095967
  N    -3.666560  1.668272  0.083152
  N    -4.401096 -2.036826  4.008976
  N    -4.089987  2.258584  4.023911
  S    -5.321587 -2.471374  2.613963
  S    -4.949238  2.120430  2.620932
  S    -2.542508 -1.677211 -0.324501
  S    -2.072633  1.702958 -0.338660
  S    -2.847986 -1.570257  3.695309
  S    -2.425216  2.379026  3.728659
