16  
    
  C    -4.929313 -2.579970  1.940511
  C    -5.271370  1.006320  1.770534
  C    -6.129916 -2.914693  1.229984
  C    -6.463869  0.456782  1.149887
  N    -3.883039 -2.429212  1.157060
  N    -4.193085  1.192374  0.982944
  N    -5.980109 -3.240046 -0.049233
  N    -6.415861  0.376074 -0.188887
  N    -6.752529 -2.510009  3.672632
  N    -7.122198  1.051722  3.627698
  S    -7.438654 -3.228017  2.302727
  S    -7.885885  0.566686  2.236971
  S    -4.361224 -2.844871 -0.352029
  S    -4.806236  0.822749 -0.569595
  S    -5.083480 -2.337824  3.656850
  S    -5.507101  1.331469  3.459191
