16  
    
  C     3.269341  1.602138  3.599844
  C     3.116828  5.042216  3.409730
  C     2.014840  1.128296  3.027348
  C     1.940677  4.524935  2.676770
  N     4.326201  1.616651  2.806222
  N     4.136772  5.446062  2.648995
  N     2.099093  0.848098  1.742496
  N     2.250123  4.293693  1.386887
  N     1.522922  1.473137  5.558535
  N     1.166688  5.053996  5.136474
  S     0.686315  0.966820  4.192867
  S     0.634148  4.145731  3.853071
  S     3.679670  1.080300  1.255955
  S     3.696591  5.003208  1.090759
  S     3.101142  2.036337  5.257067
  S     2.793959  5.348474  5.063852
