16  
    
  C    -1.498775 -1.191428  2.696104
  C    -1.618379  2.649454  2.386088
  C    -2.614211 -1.609738  1.879274
  C    -2.849284  2.218171  1.684606
  N    -0.419737 -0.825848  2.044676
  N    -0.506315  2.762873  1.623181
  N    -2.362376 -1.680796  0.587268
  N    -2.574861  1.835160  0.434335
  N    -3.470852 -1.452926  4.340501
  N    -3.531653  2.455406  4.132461
  S    -4.032081 -1.910916  2.797363
  S    -4.248702  2.083017  2.666637
  S    -0.790345 -1.185138  0.452700
  S    -0.973686  2.257357  0.092237
  S    -1.800717 -1.222122  4.403218
  S    -1.916062  2.870073  4.112961
