16  
    
  C     1.096141  0.268465  3.060788
  C     0.984761  4.264010  2.614593
  C    -0.103068  0.061154  2.306160
  C    -0.032482  3.384475  2.014813
  N     2.255145  0.305749  2.334274
  N     2.047876  4.300239  1.766365
  N     0.126504 -0.109805  1.011878
  N     0.160465  3.135119  0.709157
  N    -0.893689  0.093328  4.860039
  N    -0.872584  4.188321  4.314765
  S    -1.609987  0.162412  3.344481
  S    -1.393639  3.252183  3.015280
  S     1.768674  0.003423  0.776921
  S     1.703066  3.525901  0.381364
  S     0.805225  0.391767  4.810229
  S     0.713685  4.671591  4.326511
