16  
    
  C     0.828842 -0.040425  2.797171
  C     0.511300  3.476822  2.947328
  C    -0.475804 -0.226771  2.213110
  C    -0.881588  3.579258  2.388465
  N     1.817342  0.075800  1.913742
  N     1.479397  3.889132  2.124395
  N    -0.430439 -0.310896  0.878041
  N    -0.798327  3.750133  1.053153
  N    -0.825235 -0.208104  4.838280
  N    -1.167999  3.003608  4.895024
  S    -1.678870 -0.439912  3.453258
  S    -2.147974  3.176567  3.502937
  S     1.154589 -0.126749  0.384554
  S     0.758716  3.913886  0.614606
  S     0.798151  0.004351  4.573901
  S     0.429068  3.358260  4.671925
