16  
    
  C     3.154753  1.635076  3.699993
  C     3.161572  5.222060  3.387381
  C     1.995582  1.089953  3.052793
  C     2.038240  4.694118  2.726693
  N     4.198695  1.773940  2.859133
  N     4.255956  5.253155  2.609655
  N     2.222477  0.777377  1.768399
  N     2.130183  4.472913  1.436832
  N     1.307223  1.596473  5.509336
  N     1.366883  4.793619  5.276667
  S     0.519664  1.128303  4.118163
  S     0.659291  4.414207  3.811819
  S     3.783132  1.279502  1.419397
  S     3.770906  4.812334  1.070109
  S     2.928521  1.896957  5.365440
  S     2.895180  5.294765  5.120648
