16  
    
  C    -1.322419 -0.976221  2.345376
  C    -1.610614  2.881745  2.040972
  C    -2.511846 -1.310460  1.542494
  C    -2.539797  2.040484  1.371368
  N    -0.238827 -0.720196  1.606406
  N    -0.526166  3.124965  1.281521
  N    -2.249627 -1.490405  0.240310
  N    -2.400014  1.864862  0.031398
  N    -3.272035 -1.525834  4.008129
  N    -3.332148  2.383392  3.857792
  S    -3.975595 -1.672456  2.547910
  S    -3.875665  1.637482  2.448025
  S    -0.681876 -1.022135  0.018791
  S    -0.841128  2.500494 -0.228286
  S    -1.755960 -0.852021  4.009487
  S    -1.874192  3.209576  3.710523
