16  
    
  C    -0.029053 -0.636455  2.583993
  C    -0.276675  3.099323  2.648507
  C    -1.274788 -1.214837  2.052431
  C    -1.534297  2.737898  2.068467
  N     0.920553 -0.585087  1.666202
  N     0.584451  3.513054  1.700401
  N    -1.215464 -1.537153  0.790716
  N    -1.496308  2.473022  0.765270
  N    -1.793622 -0.683446  4.539588
  N    -1.923451  2.892625  4.588406
  S    -2.648020 -1.169064  3.180058
  S    -2.807466  2.518021  3.205129
  S     0.269107 -1.126588  0.252138
  S     0.036786  2.896576  0.255312
  S    -0.147371 -0.323032  4.344097
  S    -0.352463  3.325602  4.424050
