16  
    
  C    -5.677964 -2.725725  1.570463
  C    -5.522794  0.960217  1.409445
  C    -6.838214 -3.176170  0.816340
  C    -6.697016  0.402085  0.783290
  N    -4.576067 -2.577783  0.835274
  N    -4.515730  1.138514  0.544979
  N    -6.573578 -3.297666 -0.475208
  N    -6.574928  0.236198 -0.516119
  N    -7.494609 -3.054479  3.309396
  N    -7.289799  0.721639  3.268520
  S    -8.296485 -3.230866  1.837024
  S    -8.014367  0.177411  1.875601
  S    -5.009677 -2.835433 -0.731592
  S    -5.062709  0.710534 -0.929004
  S    -5.833372 -2.584585  3.266872
  S    -5.692483  1.067672  3.143902
