16  
    
  C    -0.909205 -0.830048  2.336294
  C    -0.709927  3.090502  2.488604
  C    -2.026783 -1.486726  1.624479
  C    -1.920149  2.532736  1.884516
  N     0.093324 -0.633544  1.517175
  N     0.273813  3.139602  1.566081
  N    -1.839937 -1.931450  0.400795
  N    -1.893824  2.471006  0.527333
  N    -2.755678 -0.922898  4.081863
  N    -2.414149  2.724286  4.337165
  S    -3.428568 -1.487314  2.644680
  S    -3.297440  2.487421  2.986011
  S    -0.278749 -1.270985  0.027660
  S    -0.338896  2.763384  0.084290
  S    -1.237868 -0.266658  3.947799
  S    -0.863998  3.236471  4.190127
