16  
    
  C    -2.725006 -1.588346  2.129896
  C    -2.532796  2.451030  2.215628
  C    -3.996612 -1.893188  1.517540
  C    -3.697929  1.962920  1.566628
  N    -1.750869 -1.250904  1.301213
  N    -1.442978  2.543950  1.432566
  N    -3.910837 -1.988940  0.186678
  N    -3.594538  1.860318  0.242439
  N    -4.442907 -1.467254  4.063566
  N    -4.226629  1.850495  4.096477
  S    -5.248734 -2.087399  2.741323
  S    -5.103622  1.723224  2.661021
  S    -2.283148 -1.582641 -0.218612
  S    -2.023354  2.204799 -0.147418
  S    -2.760578 -1.370134  3.864554
  S    -2.621716  2.375284  3.913843
