16  
    
  C     2.036922  0.824170  3.054159
  C     2.212763  4.465402  3.036792
  C     0.745797  0.606814  2.393523
  C     1.023101  4.009642  2.364873
  N     3.077380  0.634235  2.261512
  N     3.350308  4.508887  2.335927
  N     0.842484  0.352050  1.086856
  N     1.255979  3.706571  1.112239
  N     0.305949  0.976015  4.876001
  N     0.222550  4.354242  4.808569
  S    -0.568802  0.646573  3.507899
  S    -0.408914  3.957372  3.253527
  S     2.510599  0.299219  0.720177
  S     2.908199  4.052442  0.761848
  S     1.841536  1.310965  4.739695
  S     1.851495  4.825855  4.691092
