16  
    
  C    -5.820050 -2.737924  1.282024
  C    -5.612941  0.806955  1.527175
  C    -7.068332 -3.008153  0.619601
  C    -6.828981  0.367174  0.848369
  N    -4.793304 -2.527031  0.477895
  N    -4.560153  0.863347  0.725800
  N    -6.894203 -3.175585 -0.695730
  N    -6.650299  0.305656 -0.481835
  N    -7.456641 -3.220186  3.164162
  N    -7.411839  0.510288  3.314449
  S    -8.344999 -3.432989  1.801485
  S    -8.213664  0.305288  1.879019
  S    -5.296231 -2.821427 -1.055032
  S    -5.059165  0.574419 -0.818076
  S    -5.973849 -2.490461  2.983670
  S    -5.886050  1.118640  3.309962
