16  
    
  C    -4.022746 -1.878969  1.679635
  C    -3.889686  1.516379  1.726328
  C    -5.263366 -2.234285  1.052235
  C    -5.189150  1.332673  1.078262
  N    -2.983524 -1.891643  0.862634
  N    -2.919992  1.552591  0.828175
  N    -5.144736 -2.513524 -0.243069
  N    -5.147942  1.079724 -0.240182
  N    -5.787078 -1.887451  3.594713
  N    -5.691473  1.562623  3.642176
  S    -6.563313 -2.269889  2.152524
  S    -6.523743  1.368999  2.169431
  S    -3.514038 -2.303348 -0.646589
  S    -3.500530  1.250274 -0.655605
  S    -4.140905 -1.686383  3.438585
  S    -4.053391  1.676751  3.433576
