16  
    
  C    -0.114004 -0.414505  2.554905
  C     0.094163  3.524656  2.408930
  C    -1.425400 -0.672413  1.996205
  C    -1.233499  3.313971  1.799314
  N     0.832433 -0.234501  1.660389
  N     1.054643  3.708216  1.476122
  N    -1.474224 -0.683547  0.669875
  N    -1.155231  3.057747  0.473625
  N    -1.761768 -0.359642  4.553782
  N    -1.674388  3.510490  4.286475
  S    -2.703689 -0.675242  3.204480
  S    -2.521214  3.041608  2.934902
  S     0.065116 -0.352949  0.222651
  S     0.428998  3.371024  0.003884
  S    -0.134680 -0.097074  4.305260
  S    -0.073193  3.884011  4.031269
