16  
    
  C    -0.956584 -0.515943  2.400473
  C    -1.121306  3.064052  2.412071
  C    -2.120780 -0.987782  1.715272
  C    -2.365400  2.846984  1.767489
  N     0.053467 -0.155167  1.656244
  N    -0.028923  3.054824  1.620023
  N    -1.935286 -1.208642  0.427395
  N    -2.194701  2.436232  0.507651
  N    -2.695539 -1.126769  4.250593
  N    -2.952176  3.178694  4.281146
  S    -3.428689 -1.501877  2.803251
  S    -3.739220  3.035699  2.781129
  S    -0.365341 -0.687859  0.119569
  S    -0.611087  2.688322  0.126192
  S    -1.145247 -0.597354  4.198337
  S    -1.259413  3.321869  4.146495
