16  
    
  C     1.379119  0.728884  2.910124
  C     0.914456  4.162193  2.538861
  C     0.186133  0.297635  2.281946
  C    -0.185469  3.481124  1.944854
  N     2.383648  1.035536  2.078934
  N     1.982155  4.293053  1.788941
  N     0.344538  0.161618  0.937280
  N     0.025797  3.385563  0.650248
  N    -0.252767  0.231720  4.900909
  N    -0.910046  3.722535  4.330302
  S    -1.077104  0.116310  3.442663
  S    -1.547929  3.154713  2.962102
  S     1.904078  0.672299  0.578322
  S     1.519048  3.918297  0.294517
  S     1.324348  0.754600  4.656932
  S     0.601857  4.357147  4.225362
