16  
    
  C    -4.686408 -2.577129  1.558710
  C    -4.740325  0.972071  1.441477
  C    -5.992773 -2.844764  1.023812
  C    -5.915356  0.625290  0.722054
  N    -3.716936 -2.491244  0.632274
  N    -3.680337  0.961974  0.634564
  N    -5.968173 -3.157101 -0.254658
  N    -5.817361  0.670470 -0.600132
  N    -6.366244 -2.569099  3.531704
  N    -6.579849  0.924910  3.269522
  S    -7.253275 -3.035519  2.180036
  S    -7.268334  0.496609  1.764674
  S    -4.444023 -2.999432 -0.771126
  S    -4.211591  0.980678 -0.926345
  S    -4.709618 -2.451577  3.245831
  S    -4.910494  1.142926  3.173789
