16  
    
  C     2.407318  1.041777  3.228654
  C     2.970186  5.203040  3.956290
  C     1.245440  0.493306  2.538334
  C     1.689334  4.962596  3.360232
  N     3.493757  1.279044  2.521407
  N     3.989183  5.336314  3.130453
  N     1.478171  0.248478  1.244744
  N     1.768661  4.704689  2.058231
  N     0.568184  1.016824  5.034515
  N     1.240593  5.793242  5.696142
  S    -0.128667  0.364203  3.646156
  S     0.362552  5.144426  4.451979
  S     3.063747  0.753699  0.931807
  S     3.375188  4.832855  1.645127
  S     2.238497  1.332837  4.937404
  S     2.886438  5.910372  5.492568
