16  
    
  C    -4.250975 -1.981899  2.039461
  C    -4.140752  1.428632  1.911889
  C    -5.532142 -2.312841  1.489629
  C    -5.450776  1.127718  1.273053
  N    -3.208150 -1.955480  1.199356
  N    -3.123030  1.394806  1.070075
  N    -5.496476 -2.410470  0.194837
  N    -5.387987  1.004697 -0.039604
  N    -5.972534 -1.964641  3.956765
  N    -5.912528  1.371192  3.818158
  S    -6.830255 -2.491211  2.619152
  S    -6.737464  1.061545  2.439868
  S    -3.885915 -2.220147 -0.305200
  S    -3.701654  1.171890 -0.472192
  S    -4.335637 -1.747662  3.790938
  S    -4.299955  1.707348  3.691595
