16  
    
  C    -3.024478 -1.494770  2.237513
  C    -3.212349  1.832577  1.995201
  C    -4.299263 -1.777262  1.570251
  C    -4.429848  1.361752  1.340579
  N    -2.032884 -1.193088  1.404344
  N    -2.168406  2.092594  1.185692
  N    -4.157961 -1.955344  0.243362
  N    -4.330361  1.324845  0.027037
  N    -4.856976 -1.555614  4.042447
  N    -5.019175  1.581737  3.856480
  S    -5.630638 -1.889870  2.616773
  S    -5.761255  1.220303  2.451603
  S    -2.586470 -1.583665 -0.088309
  S    -2.810250  1.784932 -0.365394
  S    -3.193779 -1.195519  3.986317
  S    -3.438525  1.886758  3.783998
