16  
    
  C    -0.220535 -0.481737  2.676179
  C     0.092396  3.301233  2.507235
  C    -1.320459 -0.913286  1.902756
  C    -1.170391  2.966046  1.757359
  N     0.875601 -0.186042  1.956951
  N     1.158010  3.563937  1.721930
  N    -1.112515 -0.983092  0.587344
  N    -0.928621  2.755706  0.463953
  N    -2.088422 -0.811295  4.407266
  N    -1.730155  2.976347  4.256403
  S    -2.613052 -1.407883  2.948559
  S    -2.396303  2.313053  2.868494
  S     0.508266 -0.527505  0.334421
  S     0.594774  3.308003  0.162034
  S    -0.465345 -0.343765  4.419639
  S    -0.187982  3.500594  4.149973
