16  
    
  C     0.076756 -0.630469  2.445679
  C    -0.213019  3.121667  2.612528
  C    -1.248772 -0.862733  1.849213
  C    -1.436679  2.729794  2.050437
  N     1.080381 -0.558556  1.533776
  N     0.786085  3.342141  1.758357
  N    -1.167360 -1.066067  0.508829
  N    -1.371969  2.460742  0.757942
  N    -1.662855 -0.816713  4.419890
  N    -1.897714  2.866021  4.518984
  S    -2.480547 -1.271702  3.022422
  S    -2.648797  2.262493  3.175681
  S     0.373500 -0.874487  0.087842
  S     0.152509  2.933675  0.268330
  S    -0.119417 -0.387029  4.140778
  S    -0.404440  3.479881  4.357085
