16  
    
  C     2.324918  0.946175  3.433044
  C     1.933549  4.840182  2.996534
  C     1.040528  0.636776  2.870159
  C     0.854357  4.096142  2.357698
  N     3.350801  1.018144  2.563371
  N     2.959544  5.103110  2.158455
  N     1.122264  0.423638  1.533676
  N     1.013048  4.073466  1.030246
  N     0.614657  0.822791  5.455917
  N     0.287522  4.331049  4.824508
  S    -0.311266  0.659600  4.032472
  S    -0.546224  4.086047  3.446075
  S     2.651026  0.650292  1.081783
  S     2.547537  4.613542  0.658252
  S     2.252892  1.013172  5.204257
  S     1.800895  5.046572  4.760990
