16  
    
  C    -1.786110 -1.090222  2.480493
  C    -1.863267  2.381357  2.553790
  C    -3.011937 -1.499240  1.882633
  C    -3.137541  2.193702  1.821350
  N    -0.722491 -0.920913  1.659146
  N    -0.854396  2.575303  1.720860
  N    -2.951229 -1.560348  0.543240
  N    -3.016132  2.047255  0.504750
  N    -3.602910 -1.257812  4.307438
  N    -3.679657  2.167251  4.376609
  S    -4.362259 -1.723405  2.891253
  S    -4.476702  1.973245  2.930682
  S    -1.357227 -1.272813  0.142660
  S    -1.416636  2.472157  0.189622
  S    -1.961677 -0.882579  4.222543
  S    -2.041724  2.474844  4.281662
