16  
    
  C     2.304060  0.948484  3.423408
  C     1.951262  4.806263  2.990095
  C     1.024399  0.628329  2.864077
  C     0.842518  4.082503  2.377845
  N     3.330312  1.035936  2.550499
  N     2.976157  5.071161  2.157601
  N     1.126191  0.399280  1.535529
  N     0.986648  4.103088  1.042606
  N     0.581582  0.820003  5.459722
  N     0.306527  4.330978  4.795345
  S    -0.318117  0.668527  4.021799
  S    -0.530870  4.060972  3.459273
  S     2.655831  0.667879  1.088273
  S     2.549551  4.591661  0.658639
  S     2.258616  1.008537  5.171045
  S     1.812893  5.019143  4.727842
