16  
    
  C     1.965625  0.631150  3.169946
  C     1.823551  4.324126  3.107339
  C     0.638439  0.411436  2.615450
  C     0.535124  3.953333  2.499981
  N     2.968509  0.589908  2.283873
  N     2.870752  4.187123  2.310967
  N     0.658837  0.254068  1.285797
  N     0.643449  3.857009  1.180097
  N     0.397930  0.660478  5.209553
  N     0.212432  4.300838  5.060720
  S    -0.574170  0.215508  3.906459
  S    -0.677406  4.017951  3.684712
  S     2.215047  0.298434  0.830521
  S     2.259128  4.018172  0.778760
  S     1.990273  0.772692  4.891234
  S     1.854612  4.419212  4.846577
