16  
    
  C     1.218565  0.329063  3.131137
  C     0.984263  4.201207  2.574394
  C     0.062453  0.085269  2.318925
  C    -0.014682  3.446400  1.929323
  N     2.379112  0.221485  2.421588
  N     2.090602  4.320558  1.860037
  N     0.261800 -0.093170  1.021123
  N     0.266516  3.199864  0.664481
  N    -0.796509  0.433989  4.765758
  N    -0.964756  3.957988  4.278439
  S    -1.386174  0.271193  3.185986
  S    -1.514260  3.208406  2.859875
  S     1.882210 -0.000664  0.892485
  S     1.757208  3.759857  0.371162
  S     0.903697  0.634159  4.754535
  S     0.602557  4.405244  4.246075
