16  
    
  C    -5.317802 -2.228343  1.691023
  C    -5.369116  1.289854  1.412719
  C    -6.549041 -2.647867  1.060100
  C    -6.587085  0.901058  0.853577
  N    -4.267633 -2.227380  0.897763
  N    -4.340593  1.208842  0.593413
  N    -6.462794 -2.941416 -0.215079
  N    -6.488162  0.694915 -0.461097
  N    -7.002869 -2.502418  3.614538
  N    -7.115316  1.087804  3.374798
  S    -7.793805 -2.757528  2.167477
  S    -7.908952  0.770950  1.962235
  S    -4.887403 -2.600635 -0.634839
  S    -4.924650  0.735956 -0.838946
  S    -5.465699 -1.943348  3.409617
  S    -5.472445  1.321504  3.136750
