16  
    
  C    -0.582398 -0.452021  2.380975
  C    -0.315112  3.474351  2.958594
  C    -1.730731 -0.984187  1.757873
  C    -1.545336  2.980609  2.299429
  N     0.457258 -0.346963  1.597559
  N     0.613297  3.821980  2.055984
  N    -1.696212 -1.128879  0.436445
  N    -1.394495  2.659863  1.030206
  N    -2.241779 -0.778772  4.296104
  N    -2.252876  3.293002  4.808014
  S    -3.032949 -1.019410  2.850709
  S    -2.944565  2.884910  3.281995
  S    -0.124020 -0.669111  0.067222
  S     0.139146  3.133636  0.603302
  S    -0.645017 -0.385281  4.195258
  S    -0.610766  3.734907  4.640680
