16  
    
  C    -0.992286 -0.796260  2.307031
  C    -0.770235  3.163448  2.645087
  C    -2.219278 -1.299302  1.733905
  C    -1.922039  2.559085  2.033612
  N    -0.031830 -0.584182  1.436219
  N     0.301428  3.106449  1.859148
  N    -2.118266 -1.627493  0.480497
  N    -1.806596  2.247325  0.718603
  N    -2.838240 -0.789834  4.180620
  N    -2.512124  3.020680  4.449268
  S    -3.663418 -1.345706  2.832492
  S    -3.308913  2.650976  3.099491
  S    -0.574399 -1.206854 -0.024558
  S    -0.244810  2.671945  0.337856
  S    -1.231418 -0.326096  3.932618
  S    -0.914861  3.281346  4.383194
