16  
    
  C     0.843042  0.308031  2.864093
  C     0.588552  3.599305  2.747561
  C    -0.401689 -0.170425  2.248668
  C    -0.668257  3.248192  2.082204
  N     1.821127  0.606605  1.985312
  N     1.557710  3.719168  1.820822
  N    -0.322222 -0.337681  0.935456
  N    -0.684967  3.440843  0.749846
  N    -0.808260  0.018691  4.739761
  N    -1.056489  3.241412  4.679409
  S    -1.621337 -0.479712  3.395520
  S    -1.887605  3.003820  3.241771
  S     1.224473  0.175895  0.524366
  S     0.878699  3.640789  0.360045
  S     0.737390  0.577693  4.552081
  S     0.554733  3.511235  4.482496
