16  
    
  C    -0.580348 -0.432530  2.377027
  C    -0.331047  3.495746  2.946335
  C    -1.724912 -0.994201  1.761597
  C    -1.548827  2.971268  2.296237
  N     0.461116 -0.335436  1.590050
  N     0.625333  3.823961  2.060205
  N    -1.661788 -1.125192  0.441910
  N    -1.392263  2.661259  1.026325
  N    -2.224752 -0.774589  4.299658
  N    -2.243311  3.284501  4.803513
  S    -3.022023 -1.021546  2.852841
  S    -2.937641  2.892418  3.280610
  S    -0.114225 -0.673535  0.065142
  S     0.138593  3.141209  0.599961
  S    -0.628720 -0.385322  4.192865
  S    -0.609241  3.733465  4.641675
