16  
    
  C     2.940493  1.466992  3.425920
  C     3.012334  4.944730  3.234773
  C     1.734734  1.012794  2.754470
  C     1.774371  4.537174  2.649870
  N     3.978372  1.760536  2.652248
  N     3.920539  5.332991  2.323534
  N     1.851442  0.958565  1.402338
  N     1.833939  4.326190  1.324162
  N     1.188997  1.152899  5.319481
  N     1.159423  5.018699  5.086761
  S     0.403254  0.788432  3.930795
  S     0.458747  4.267139  3.773038
  S     3.400085  1.437233  1.061985
  S     3.354114  4.797973  0.848823
  S     2.768176  1.598862  5.106148
  S     2.783572  5.445823  4.879004
