16  
    
  C    -5.775483 -2.785870  1.198959
  C    -5.710866  0.905273  1.521466
  C    -7.027921 -3.147158  0.614566
  C    -6.914180  0.489166  0.870446
  N    -4.846157 -2.562606  0.284895
  N    -4.569833  1.013481  0.801192
  N    -6.963515 -3.311599 -0.705574
  N    -6.720121  0.257576 -0.411644
  N    -7.356477 -3.293787  3.137990
  N    -7.550439  0.579978  3.368560
  S    -8.252645 -3.624682  1.774227
  S    -8.252663  0.176611  1.902096
  S    -5.444816 -2.876865 -1.189722
  S    -5.130279  0.598098 -0.709933
  S    -5.880910 -2.519868  2.927816
  S    -5.956571  1.046762  3.253235
