16  
    
  C    -1.294074 -0.904044  2.053678
  C    -1.580396  3.266942  1.950793
  C    -2.484230 -1.378706  1.464543
  C    -2.568568  2.372791  1.376564
  N    -0.366987 -0.575120  1.188928
  N    -0.533738  3.571074  1.191287
  N    -2.437223 -1.522619  0.139581
  N    -2.352141  2.144888  0.098118
  N    -2.979624 -1.023503  4.005927
  N    -3.229202  2.684362  3.862030
  S    -3.795933 -1.584042  2.684457
  S    -3.884548  2.039048  2.436708
  S    -0.947586 -1.008038 -0.313385
  S    -0.955056  2.993879 -0.321935
  S    -1.396549 -0.738137  3.840654
  S    -1.730509  3.423425  3.693218
