16  
    
  C     2.223147  1.031993  3.476263
  C     2.126823  4.909515  3.167678
  C     0.961611  0.648137  2.893569
  C     0.902164  4.481845  2.480564
  N     3.196167  1.135260  2.557394
  N     3.077911  5.278138  2.339901
  N     0.959158  0.566703  1.579832
  N     0.967293  4.444705  1.154166
  N     0.506773  1.012993  5.395485
  N     0.399872  4.379868  4.947016
  S    -0.338574  0.446679  3.988859
  S    -0.425267  4.100416  3.558058
  S     2.548847  0.909584  1.082321
  S     2.561095  4.896621  0.809510
  S     2.122669  1.358342  5.183659
  S     2.062907  4.704387  4.925530
