16  
    
  C    -0.436661 -0.733077  2.695922
  C    -0.323272  3.300000  2.771498
  C    -1.636127 -1.258904  2.183029
  C    -1.477817  2.720246  2.090970
  N     0.573518 -0.687932  1.796489
  N     0.700268  3.478131  1.918606
  N    -1.736298 -1.407411  0.850732
  N    -1.248297  2.347931  0.833795
  N    -2.108434 -0.663201  4.651848
  N    -2.259052  3.050319  4.509727
  S    -2.918791 -1.157862  3.327638
  S    -2.821238  2.313405  3.100096
  S    -0.175293 -1.049321  0.360065
  S     0.261041  2.896965  0.446740
  S    -0.491112 -0.341494  4.433895
  S    -0.728679  3.675363  4.369751
