16  
    
  C     0.276037  0.056471  2.735312
  C     0.089627  3.549695  2.730809
  C    -0.942666 -0.437516  2.106052
  C    -0.968184  2.923184  2.047366
  N     1.283910  0.377912  1.878318
  N     1.122327  3.931710  1.982466
  N    -0.746538 -0.768133  0.818573
  N    -0.800610  2.832793  0.746315
  N    -1.494491 -0.338816  4.670850
  N    -1.625645  3.078820  4.572353
  S    -2.250533 -0.877454  3.294165
  S    -2.327911  2.620855  3.095097
  S     0.785396 -0.248526  0.374001
  S     0.787280  3.432513  0.443372
  S     0.058268  0.232153  4.472462
  S    -0.135354  3.799598  4.444692
