16  
    
  C    -0.187304 -0.429117  2.411410
  C    -0.362541  3.461522  2.721178
  C    -1.461117 -0.873246  1.740289
  C    -1.565837  2.997058  2.136775
  N     0.799829 -0.234855  1.559497
  N     0.684812  3.524322  1.905444
  N    -1.355872 -1.142602  0.426652
  N    -1.536113  3.048777  0.823476
  N    -1.952612 -0.603572  4.291796
  N    -2.070670  3.230262  4.614746
  S    -2.600605 -1.244807  2.895548
  S    -2.891665  2.900195  3.271574
  S     0.248624 -0.661076  0.051219
  S     0.047204  3.234422  0.385919
  S    -0.321234 -0.128526  4.142808
  S    -0.547616  3.739613  4.478213
