16  
    
  C    -0.204694 -0.356494  2.739481
  C     0.157716  3.507184  2.342244
  C    -1.300247 -0.951154  1.960693
  C    -1.018425  3.013671  1.719260
  N     0.883916 -0.128420  2.017976
  N     1.191876  3.648244  1.505152
  N    -1.069226 -0.962716  0.641888
  N    -0.951349  2.936655  0.396965
  N    -2.146063 -0.649803  4.470312
  N    -1.507402  2.830463  4.191745
  S    -2.757187 -1.002015  2.981790
  S    -2.376810  2.776798  2.808166
  S     0.505656 -0.470302  0.459273
  S     0.592436  3.486211 -0.027988
  S    -0.513150 -0.253605  4.532509
  S     0.074518  3.411280  4.037622
