16  
    
  C    -4.706450 -2.585148  1.635469
  C    -4.873171  1.282279  1.463375
  C    -5.959626 -3.080732  1.113600
  C    -5.973924  0.658256  0.826959
  N    -3.783542 -2.302539  0.750101
  N    -3.801005  1.399105  0.718164
  N    -5.958744 -3.192147 -0.214562
  N    -5.766757  0.439851 -0.484591
  N    -6.320981 -2.789758  3.686147
  N    -6.599296  0.752127  3.361633
  S    -7.217186 -2.992350  2.305754
  S    -7.238309  0.287906  1.908155
  S    -4.435468 -2.702211 -0.735177
  S    -4.240459  0.848889 -0.744045
  S    -4.765210 -2.173508  3.341803
  S    -4.962936  1.264725  3.227613
