16  
    
  C     1.796671  0.581256  3.051596
  C     1.932443  4.378091  3.366557
  C     0.558845  0.240911  2.434870
  C     0.675105  4.037902  2.722429
  N     2.822115  0.827400  2.183791
  N     2.992478  4.399888  2.560400
  N     0.581512  0.148906  1.098952
  N     0.722722  4.139320  1.410185
  N     0.031537  0.297788  4.950618
  N     0.143758  3.965080  5.270613
  S    -0.738435 -0.078261  3.583014
  S    -0.538815  3.711083  3.773307
  S     2.152313  0.509596  0.668677
  S     2.335362  4.493044  0.989151
  S     1.672490  0.441662  4.783777
  S     1.817961  4.295487  5.118493
