16  
    
  C     2.268668  1.082645  3.478677
  C     2.020667  5.001555  3.210009
  C     0.998391  0.675482  2.938679
  C     0.914707  4.434803  2.403347
  N     3.239300  1.196226  2.580988
  N     3.088475  5.170686  2.442971
  N     1.004016  0.335050  1.654270
  N     1.060415  4.538740  1.075569
  N     0.538941  0.888283  5.510338
  N     0.211957  4.480686  4.823687
  S    -0.321448  0.673161  4.065455
  S    -0.541386  4.200176  3.358856
  S     2.554925  0.630727  1.116953
  S     2.641723  4.946511  0.850606
  S     2.242275  1.138307  5.245030
  S     1.685362  5.158496  4.952714
