16  
    
  C     0.763371  0.425356  3.066899
  C     0.649460  3.792393  3.008113
  C    -0.519883  0.092853  2.411862
  C    -0.670388  3.342266  2.473170
  N     1.792548  0.537877  2.244861
  N     1.547953  4.103792  2.054552
  N    -0.424943 -0.153549  1.082843
  N    -0.526021  2.899241  1.205836
  N    -1.018881  0.266004  4.922568
  N    -1.127989  3.988944  4.873785
  S    -1.831995  0.246659  3.459830
  S    -1.995571  3.296136  3.553354
  S     1.184464  0.148380  0.751457
  S     1.039200  3.304820  0.687765
  S     0.642427  0.558736  4.788645
  S     0.455474  4.258625  4.620053
