16  
    
  C     1.801172  0.604021  3.009196
  C     1.941369  4.253582  3.362976
  C     0.529148  0.237494  2.427000
  C     0.703316  4.188281  2.659834
  N     2.789562  0.833679  2.159322
  N     2.966220  4.364597  2.539426
  N     0.614013  0.116120  1.097795
  N     0.732739  4.124769  1.325542
  N     0.103639  0.349427  5.032489
  N     0.158082  3.950987  5.232500
  S    -0.785281 -0.045088  3.578981
  S    -0.593460  3.716752  3.808959
  S     2.122881  0.481431  0.665937
  S     2.310485  4.441874  1.012190
  S     1.730114  0.437090  4.761867
  S     1.807412  4.284859  5.131915
