16  
    
  C     1.470469  0.991774  3.227813
  C     1.629021  4.421670  3.454897
  C     0.277132  0.466730  2.671120
  C     0.329036  4.331737  2.874927
  N     2.465597  1.224097  2.390329
  N     2.604832  4.376345  2.537875
  N     0.384748  0.214073  1.341476
  N     0.317761  3.888422  1.625614
  N    -0.252336  0.901160  5.145446
  N    -0.018204  4.639214  5.321030
  S    -1.082581  0.472813  3.686680
  S    -0.952328  4.229311  4.052534
  S     1.903693  0.748077  0.901124
  S     1.939857  4.039558  1.069291
  S     1.337813  1.288220  4.927950
  S     1.595753  4.874374  5.109290
