16  
    
  C     2.018296  0.830120  3.021059
  C     2.262432  4.334747  3.112162
  C     0.779672  0.551213  2.374080
  C     1.076095  4.087865  2.310491
  N     3.107512  0.706477  2.222525
  N     3.324425  4.514227  2.353892
  N     0.891348  0.277054  1.062831
  N     1.312069  3.765903  1.047535
  N     0.224064  0.960177  4.891649
  N     0.251314  4.364213  4.794809
  S    -0.581205  0.684532  3.507361
  S    -0.411195  3.939069  3.279159
  S     2.489647  0.369350  0.726598
  S     2.932324  4.036260  0.791829
  S     1.834413  1.331325  4.698141
  S     1.821288  4.815584  4.654317
