16  
    
  C    -2.680548 -1.236894  2.154903
  C    -2.558954  2.308460  2.328711
  C    -3.837713 -1.806522  1.560540
  C    -3.736346  1.854934  1.611415
  N    -1.560511 -1.170541  1.366961
  N    -1.660498  2.816336  1.518605
  N    -3.755342 -1.914957  0.212518
  N    -3.606725  1.806090  0.272579
  N    -4.404491 -1.593383  4.038636
  N    -4.302415  1.982496  4.108960
  S    -5.182210 -2.025763  2.650859
  S    -5.037152  1.554752  2.708921
  S    -2.209482 -1.504027 -0.156373
  S    -2.138181  2.484175 -0.055572
  S    -2.789498 -1.235701  3.896448
  S    -2.746248  2.442691  4.030657
