16  
    
  C    -0.803907 -0.785259  2.350675
  C    -0.736811  3.093277  2.472379
  C    -1.911457 -1.381575  1.712627
  C    -1.979220  2.683135  1.817140
  N     0.191091 -0.498137  1.536351
  N     0.196684  3.275676  1.552048
  N    -1.719176 -1.827665  0.489409
  N    -1.937330  2.383194  0.524632
  N    -2.761058 -0.938793  4.059445
  N    -2.441959  2.753492  4.422071
  S    -3.416431 -1.518344  2.676104
  S    -3.269263  2.580342  2.974395
  S    -0.205215 -1.250406  0.055394
  S    -0.406671  2.847264  0.062411
  S    -1.165330 -0.460785  3.998302
  S    -0.827493  3.244916  4.160826
