16  
    
  C     3.761954  1.976618  3.728820
  C     3.573313  5.192184  3.586858
  C     2.649931  1.501713  2.962332
  C     2.343804  5.010248  2.885418
  N     4.822271  2.193696  2.924697
  N     4.554815  5.607461  2.765824
  N     2.812947  1.347077  1.626889
  N     2.430531  4.946498  1.563564
  N     1.817817  1.858817  5.442258
  N     1.810550  5.085157  5.514727
  S     1.186368  1.604721  3.899472
  S     0.978051  4.840144  4.049448
  S     4.395034  1.932516  1.378009
  S     4.047790  5.368977  1.246816
  S     3.440271  2.273687  5.405971
  S     3.414297  5.429737  5.294554
