16  
    
  C    -0.383239 -0.733266  2.702620
  C    -0.393761  3.294480  2.678738
  C    -1.672014 -1.199274  2.154088
  C    -1.461783  2.568562  2.088914
  N     0.562680 -0.770525  1.802264
  N     0.712914  3.463232  1.959888
  N    -1.622851 -1.374303  0.833292
  N    -1.340752  2.483419  0.760818
  N    -2.055588 -0.619092  4.644431
  N    -2.217018  3.027215  4.559782
  S    -2.884864 -1.217149  3.350821
  S    -2.844242  2.341356  3.119367
  S    -0.097038 -1.118282  0.351030
  S     0.240519  2.896999  0.436541
  S    -0.434637 -0.315882  4.425914
  S    -0.680999  3.668944  4.377969
