16  
    
  C    -3.834274 -2.304431  1.612649
  C    -3.534132  1.902632  1.557156
  C    -5.172447 -2.467445  1.010522
  C    -4.700280  1.367456  0.993008
  N    -2.816600 -1.959727  0.822299
  N    -2.507207  2.155938  0.751155
  N    -5.079232 -2.391535 -0.311492
  N    -4.602587  1.165369 -0.325489
  N    -5.606707 -2.390193  3.560881
  N    -5.224103  1.568257  3.614341
  S    -6.488490 -2.736997  2.161040
  S    -5.889046  0.967182  2.205713
  S    -3.527113 -2.024641 -0.727065
  S    -3.093792  1.711766 -0.778935
  S    -3.955278 -2.494769  3.389419
  S    -3.659591  2.136454  3.335873
