16  
    
  C    -4.255194 -2.471043  1.494381
  C    -4.329912  1.576224  2.051414
  C    -5.487217 -2.780984  0.880803
  C    -5.451212  0.906328  1.373815
  N    -3.209268 -2.330016  0.727162
  N    -3.319342  1.742620  1.237101
  N    -5.310339 -3.125973 -0.403600
  N    -5.316364  0.709909  0.081715
  N    -6.100985 -2.578271  3.369998
  N    -6.152717  1.388980  3.844172
  S    -6.776537 -3.182152  1.982801
  S    -6.831599  0.829202  2.373460
  S    -3.762528 -2.772069 -0.777079
  S    -3.799247  1.251097 -0.300035
  S    -4.461789 -2.236871  3.176762
  S    -4.522482  1.927880  3.691046
