16  
    
  C    -5.900711 -3.090877  1.395855
  C    -6.001790  0.920609  1.317147
  C    -7.095607 -3.376629  0.606838
  C    -7.269557  0.517858  0.631776
  N    -4.792535 -2.931650  0.681008
  N    -4.913973  1.091937  0.527018
  N    -6.776703 -3.484201 -0.680468
  N    -7.116931  0.515840 -0.680026
  N    -7.683554 -3.309891  3.113692
  N    -7.761089  0.267076  3.171916
  S    -8.535485 -3.454783  1.636597
  S    -8.610247  0.199855  1.771093
  S    -5.154437 -3.255058 -0.839754
  S    -5.528027  0.803175 -1.002170
  S    -6.091425 -2.928542  3.097377
  S    -6.179201  0.661279  3.084267
