16  
    
  C    -1.969594 -1.038739  2.253549
  C    -2.305825  2.450484  1.954821
  C    -3.137943 -1.646095  1.581901
  C    -3.552692  2.079639  1.419932
  N    -0.963524 -0.872778  1.408466
  N    -1.327933  2.532734  1.030721
  N    -3.036399 -1.709749  0.271559
  N    -3.579352  1.808245  0.117445
  N    -3.877863 -1.072056  3.992683
  N    -3.957642  2.396439  3.893653
  S    -4.552391 -1.622211  2.597507
  S    -4.892759  2.016639  2.597204
  S    -1.511505 -1.246018 -0.140284
  S    -2.037460  2.132416 -0.379548
  S    -2.224470 -0.811198  4.008648
  S    -2.402138  2.831850  3.614415
