16  
    
  C    -2.881324 -1.770707  1.991736
  C    -2.758193  2.265175  1.957118
  C    -4.045575 -2.266414  1.295346
  C    -3.966822  2.025633  1.268717
  N    -1.768615 -1.632951  1.270115
  N    -1.669838  2.364031  1.194803
  N    -3.821473 -2.345822 -0.001949
  N    -3.826458  1.974528 -0.065048
  N    -4.741188 -2.171274  3.708817
  N    -4.574328  1.888562  3.791670
  S    -5.493181 -2.493557  2.200334
  S    -5.342774  1.711607  2.306081
  S    -2.239504 -1.871489 -0.303574
  S    -2.156873  2.107078 -0.372050
  S    -3.165878 -1.688986  3.675275
  S    -2.961773  2.441425  3.740070
