16  
    
  C    -4.657458 -2.863965  1.515832
  C    -4.694248  1.008265  1.430251
  C    -5.967264 -3.005750  0.955043
  C    -5.928628  0.823538  0.714473
  N    -3.689202 -2.708228  0.624944
  N    -3.620786  1.069760  0.668224
  N    -5.997405 -3.127647 -0.383594
  N    -5.847572  0.712774 -0.638216
  N    -6.376279 -2.681156  3.443416
  N    -6.476669  0.764343  3.273866
  S    -7.323519 -2.955709  2.093523
  S    -7.256260  0.703705  1.854049
  S    -4.426549 -2.806123 -0.840247
  S    -4.117758  0.947108 -0.922666
  S    -4.771315 -2.472644  3.175582
  S    -4.842826  0.969472  3.194338
