16  
    
  C     2.940307  1.565261  3.401528
  C     2.958985  5.066387  3.257264
  C     1.690734  1.322505  2.707718
  C     1.729220  4.800247  2.568083
  N     4.042465  1.567893  2.650858
  N     4.047712  5.182483  2.486917
  N     1.830240  1.235381  1.372938
  N     1.969441  4.427803  1.292456
  N     1.215641  1.006805  5.209407
  N     1.156481  4.961392  5.043673
  S     0.431497  0.886484  3.759320
  S     0.391075  4.481357  3.628437
  S     3.405953  1.392765  1.022279
  S     3.533015  4.772664  0.962065
  S     2.812679  1.600603  5.193732
  S     2.810808  5.361019  4.948746
