16  
    
  C    -4.658968 -2.851034  1.503268
  C    -4.686617  1.015608  1.429330
  C    -5.966882 -3.017234  0.952760
  C    -5.929490  0.857412  0.706423
  N    -3.686587 -2.697885  0.630985
  N    -3.622508  1.081414  0.668930
  N    -6.006229 -3.115845 -0.379830
  N    -5.840180  0.709266 -0.646169
  N    -6.379776 -2.690486  3.430262
  N    -6.472926  0.760250  3.266446
  S    -7.317833 -2.953134  2.087644
  S    -7.243759  0.701188  1.864677
  S    -4.428057 -2.799401 -0.836428
  S    -4.122603  0.942637 -0.916035
  S    -4.772916 -2.473912  3.174308
  S    -4.843166  0.960962  3.207000
