16  
    
  C     0.916451  0.151205  2.867098
  C     0.550937  3.583365  2.963669
  C    -0.339354 -0.316800  2.271457
  C    -0.835907  3.646683  2.428077
  N     1.891542  0.352759  1.991568
  N     1.441547  4.000110  2.080849
  N    -0.281255 -0.520244  0.943289
  N    -0.877046  3.711488  1.094975
  N    -0.840762 -0.034630  4.797453
  N    -1.160416  3.284215  4.932553
  S    -1.700281 -0.193801  3.386461
  S    -2.078409  3.318390  3.563948
  S     1.237072 -0.056295  0.527702
  S     0.718052  3.882152  0.574175
  S     0.785188  0.287353  4.585890
  S     0.526421  3.375499  4.645780
