16  
    
  C    -4.357458 -2.467752  1.489009
  C    -4.452137  1.614674  1.965662
  C    -5.505240 -2.929529  0.773878
  C    -5.595258  0.982661  1.345452
  N    -3.257381 -2.148206  0.763694
  N    -3.461279  1.750386  1.087516
  N    -5.325048 -2.995765 -0.521431
  N    -5.560588  0.820605  0.013913
  N    -6.269514 -2.884669  3.310240
  N    -5.943762  1.050486  3.907381
  S    -6.905908 -3.279379  1.802118
  S    -6.800624  0.612978  2.516480
  S    -3.778362 -2.394643 -0.821880
  S    -4.034625  1.283509 -0.356338
  S    -4.711734 -2.344868  3.177172
  S    -4.387170  1.743222  3.680456
