16  
    
  C     1.008242  0.197426  2.995285
  C     1.001554  4.152627  2.645770
  C    -0.250767 -0.063139  2.418211
  C    -0.159893  3.340451  2.206003
  N     2.036713  0.239698  2.136183
  N     1.945928  4.121471  1.765389
  N    -0.215724 -0.100567  1.073532
  N    -0.055273  2.838336  0.989411
  N    -0.739010 -0.177925  4.957752
  N    -0.747268  4.341014  4.521954
  S    -1.627028 -0.214410  3.493568
  S    -1.465497  3.422671  3.377956
  S     1.403133  0.036904  0.602622
  S     1.463080  3.328703  0.401427
  S     0.939022  0.199759  4.757335
  S     0.875905  4.777823  4.263906
