16  
    
  C    -3.523151 -2.539688  1.887642
  C    -3.711225  1.975187  1.812586
  C    -4.727696 -2.999128  1.181765
  C    -4.626785  1.004837  1.258137
  N    -2.431342 -2.332884  1.164997
  N    -2.689814  2.314302  1.043407
  N    -4.496982 -3.237345 -0.097789
  N    -4.413083  0.698709 -0.028815
  N    -5.447385 -2.514311  3.636987
  N    -5.402971  1.445000  3.694997
  S    -5.996708 -3.347246  2.313265
  S    -5.974303  0.573339  2.402435
  S    -2.901376 -2.743984 -0.387691
  S    -2.975102  1.476597 -0.461294
  S    -3.803096 -2.161435  3.617902
  S    -3.970766  2.272037  3.572772
