16  
    
  C     2.498655  1.059504  3.252931
  C     2.991778  5.340065  3.897353
  C     1.316833  0.516220  2.603185
  C     1.711647  4.888658  3.354256
  N     3.507959  1.280855  2.387685
  N     4.039144  5.212999  3.054690
  N     1.520546  0.265961  1.317012
  N     1.752990  4.706422  2.032855
  N     0.638528  0.896403  5.043073
  N     1.228385  5.750699  5.781091
  S    -0.143368  0.348814  3.638246
  S     0.341865  5.234920  4.428981
  S     3.071759  0.758930  0.922008
  S     3.331221  4.813540  1.594847
  S     2.195230  1.337533  4.953621
  S     2.910672  5.888619  5.526947
