16  
    
  C    -2.552733 -1.114985  2.176766
  C    -2.685760  2.526976  2.343509
  C    -3.665062 -1.762617  1.521213
  C    -3.809138  1.931442  1.735734
  N    -1.449691 -0.958920  1.391193
  N    -1.747641  3.032463  1.549996
  N    -3.551821 -1.807708  0.174135
  N    -3.661688  1.782197  0.422724
  N    -4.233759 -1.819031  4.020038
  N    -4.364948  2.026230  4.173843
  S    -5.043052 -2.044752  2.622409
  S    -4.991186  1.382807  2.812714
  S    -1.956915 -1.350201 -0.165299
  S    -2.266171  2.540031 -0.003229
  S    -2.786988 -0.990038  3.900560
  S    -2.845071  2.659544  4.101608
