16  
    
  C    -1.319688 -0.660189  1.893019
  C    -1.254844  3.466542  2.111601
  C    -2.673602 -1.181771  1.481077
  C    -2.395626  2.708747  1.640666
  N    -0.536204 -0.393634  0.856545
  N    -0.312519  3.670612  1.200044
  N    -2.731792 -1.516636  0.229118
  N    -2.373939  2.560227  0.316368
  N    -2.814179 -0.587959  3.975899
  N    -2.740392  2.917695  4.177090
  S    -3.723669 -1.260005  2.806937
  S    -3.595455  2.390455  2.814383
  S    -1.264220 -0.987284 -0.530414
  S    -0.969080  3.190152 -0.251274
  S    -1.276464 -0.119005  3.598846
  S    -1.159994  3.449001  3.849939
