16  
    
  C    -1.234170 -0.416939  2.193091
  C    -1.172824  3.051625  2.262471
  C    -2.477601 -0.899495  1.630869
  C    -2.430958  2.704295  1.681743
  N    -0.208961 -0.257156  1.322409
  N    -0.217124  3.074442  1.351684
  N    -2.399437 -1.139230  0.333860
  N    -2.549429  2.807047  0.359445
  N    -2.913912 -0.729540  4.073662
  N    -2.829510  3.081787  4.245336
  S    -3.712802 -1.348916  2.737867
  S    -3.729258  2.720483  2.877110
  S    -0.852907 -0.736632 -0.176706
  S    -0.958800  2.931785 -0.155930
  S    -1.395566 -0.169111  3.870476
  S    -1.194801  3.320107  4.000020
