16  
    
  C    -5.750787 -2.744394  1.190986
  C    -5.791656  0.847066  1.550418
  C    -6.870684 -3.486618  0.668467
  C    -6.997377  0.359697  0.885961
  N    -4.836842 -2.489678  0.247487
  N    -4.747226  1.176839  0.812890
  N    -6.934578 -3.563779 -0.667439
  N    -6.818079  0.187039 -0.416118
  N    -7.430661 -3.138695  3.163965
  N    -7.662846  0.708688  3.370688
  S    -8.139002 -3.768485  1.781823
  S    -8.272018  0.011298  1.978764
  S    -5.522743 -2.945468 -1.187737
  S    -5.229610  0.685260 -0.750316
  S    -5.816827 -2.720477  2.942516
  S    -5.966168  1.024064  3.345321
