16  
    
  C    -4.700512 -2.266638  1.536738
  C    -4.429215  1.342015  1.901733
  C    -5.791854 -2.801049  0.740299
  C    -5.639129  0.900692  1.267977
  N    -3.676845 -1.923965  0.772136
  N    -3.515518  1.777442  1.042462
  N    -5.657579 -2.639119 -0.571090
  N    -5.521367  0.754309 -0.026908
  N    -6.407813 -2.908375  3.204740
  N    -6.097106  0.793681  3.786753
  S    -7.139476 -3.236703  1.758894
  S    -6.837355  0.257476  2.459376
  S    -4.123622 -2.124519 -0.805426
  S    -4.009576  1.364657 -0.542864
  S    -4.850703 -2.314671  3.236363
  S    -4.504633  1.190518  3.704967
