16  
    
  C    -4.689566 -2.490972  1.683441
  C    -4.861381  1.196296  1.585385
  C    -5.897938 -3.092817  1.177645
  C    -6.012224  0.662433  0.845661
  N    -3.728469 -2.281072  0.750173
  N    -3.806026  1.455504  0.777245
  N    -5.955293 -3.145472 -0.147982
  N    -5.806464  0.269033 -0.411135
  N    -6.302560 -2.754657  3.669238
  N    -6.563909  0.793872  3.369557
  S    -7.252291 -3.030981  2.312209
  S    -7.259686  0.219308  1.956472
  S    -4.467309 -2.626500 -0.691872
  S    -4.235804  0.869903 -0.742000
  S    -4.784407 -2.150133  3.349398
  S    -5.027798  1.332843  3.301527
