16  
    
  C     0.285523  0.063067  2.753132
  C     0.134424  3.516018  2.735788
  C    -0.929108 -0.430668  2.116791
  C    -0.954740  2.964761  2.046619
  N     1.284562  0.386706  1.885740
  N     1.132295  3.972989  1.983661
  N    -0.732559 -0.773469  0.830976
  N    -0.790333  2.840557  0.756417
  N    -1.476419 -0.353951  4.668034
  N    -1.638139  3.051771  4.573000
  S    -2.233940 -0.862020  3.291290
  S    -2.332241  2.632522  3.100823
  S     0.804117 -0.255897  0.371933
  S     0.789490  3.439959  0.455263
  S     0.080016  0.211115  4.475862
  S    -0.119817  3.781494  4.450833
