16  
    
  C    -0.652253 -0.414119  2.651247
  C    -0.371279  3.256813  2.715173
  C    -1.834254 -1.012842  2.091070
  C    -1.448248  2.536871  2.077122
  N     0.376763 -0.311298  1.801394
  N     0.594907  3.681307  1.882723
  N    -1.826868 -1.310010  0.781995
  N    -1.096798  2.170492  0.853107
  N    -2.175831 -0.874808  4.656847
  N    -2.273991  3.048217  4.477259
  S    -3.107893 -0.992613  3.278353
  S    -2.811043  2.309507  3.093709
  S    -0.214947 -0.845042  0.325188
  S     0.417563  2.816580  0.519479
  S    -0.616278 -0.342453  4.421990
  S    -0.713761  3.730599  4.346799
