16  
    
  C    -3.747851 -2.359100  1.731653
  C    -3.414067  1.764023  1.639610
  C    -4.978265 -2.700267  1.036612
  C    -4.566465  1.228818  1.053977
  N    -2.714795 -2.224641  0.888881
  N    -2.393515  1.883088  0.819005
  N    -4.854697 -2.690929 -0.305942
  N    -4.416236  0.873117 -0.203087
  N    -5.468017 -2.874663  3.567038
  N    -5.107319  1.470752  3.499190
  S    -6.362051 -2.801805  2.122566
  S    -5.839091  0.803874  2.175154
  S    -3.269779 -2.412335 -0.638972
  S    -2.857556  1.257542 -0.577311
  S    -3.817452 -2.647630  3.415632
  S    -3.581773  2.095004  3.289626
