16  
    
  C    -0.118802 -0.502805  2.762316
  C     0.184129  3.353750  2.415962
  C    -1.301697 -0.830624  2.038214
  C    -1.020225  2.877990  1.689132
  N     0.950963 -0.164025  2.056782
  N     1.163022  3.641040  1.608450
  N    -1.069694 -1.001763  0.755325
  N    -0.993548  2.993061  0.371732
  N    -2.136673 -0.660111  4.351397
  N    -1.615732  2.851812  4.260249
  S    -2.705639 -1.259197  2.934487
  S    -2.329885  2.554073  2.755050
  S     0.448603 -0.465844  0.464001
  S     0.590292  3.361308  0.018026
  S    -0.522085 -0.264855  4.398777
  S    -0.030806  3.477950  4.174291
