16  
    
  C     3.177374  1.643107  3.677466
  C     3.221553  5.094448  3.417371
  C     1.990891  1.106068  3.022687
  C     2.005448  4.692624  2.710903
  N     4.266309  1.771138  2.920403
  N     4.209017  5.391136  2.565613
  N     2.157925  0.765410  1.746147
  N     2.178089  4.454917  1.413227
  N     1.345339  1.481336  5.521738
  N     1.324797  4.705997  5.207463
  S     0.575472  1.092234  4.082983
  S     0.645816  4.311975  3.751665
  S     3.739963  1.172261  1.354350
  S     3.715087  4.818713  1.065759
  S     2.952508  2.019839  5.360042
  S     2.903583  5.371363  5.186533
