16  
    
  C    -4.744556 -2.453093  1.497779
  C    -4.494229  0.957666  1.690963
  C    -5.987412 -2.715885  0.839175
  C    -5.745656  0.613019  1.006833
  N    -3.750007 -2.102637  0.668784
  N    -3.445735  1.199889  0.890809
  N    -5.922456 -2.827424 -0.494962
  N    -5.702722  0.766835 -0.310781
  N    -6.451155 -2.759116  3.368265
  N    -6.279605  0.661726  3.639342
  S    -7.251921 -3.071666  1.925224
  S    -7.085691  0.506069  2.167027
  S    -4.310125 -2.441948 -0.822792
  S    -4.040842  1.281913 -0.655268
  S    -4.793733 -2.416152  3.215462
  S    -4.640030  1.048415  3.461015
