16  
    
  C    -1.310548 -0.975020  2.217323
  C    -1.548231  2.990905  1.969980
  C    -2.564835 -1.268293  1.491281
  C    -2.580984  2.209865  1.390311
  N    -0.266858 -0.729400  1.390836
  N    -0.486786  3.318342  1.202090
  N    -2.363567 -1.416709  0.176915
  N    -2.425525  2.155454  0.067218
  N    -3.128969 -1.146302  3.973529
  N    -3.317431  2.543444  3.828477
  S    -3.844100 -1.664753  2.536920
  S    -3.860140  1.802247  2.431343
  S    -0.830834 -0.996414 -0.119863
  S    -0.936450  2.759808 -0.324099
  S    -1.521447 -0.764297  3.916812
  S    -1.888020  3.376394  3.656867
