16  
    
  C    -0.175213 -0.193981  2.559010
  C    -0.020038  3.778937  2.352067
  C    -1.454173 -0.637664  2.010283
  C    -1.203415  3.165121  1.808600
  N     0.741568 -0.075849  1.642615
  N     1.066272  3.708468  1.542208
  N    -1.479602 -0.727713  0.697763
  N    -1.142502  2.879374  0.499347
  N    -1.732243 -0.322867  4.600625
  N    -1.708383  3.500335  4.299893
  S    -2.625742 -0.685658  3.259059
  S    -2.526102  3.032319  2.927164
  S     0.094324 -0.372352  0.103986
  S     0.371528  3.289757  0.041627
  S    -0.107352 -0.104414  4.311995
  S    -0.104846  3.967917  4.137159
