16  
    
  C    -1.220239 -0.499303  2.185647
  C    -1.173301  3.032390  2.254871
  C    -2.461143 -0.875491  1.623279
  C    -2.483477  2.712524  1.691420
  N    -0.191310 -0.274081  1.351394
  N    -0.188407  3.045809  1.371013
  N    -2.355341 -1.123500  0.355587
  N    -2.547347  2.817260  0.367499
  N    -2.907743 -0.735856  4.063204
  N    -2.859029  3.106276  4.264197
  S    -3.695356 -1.367730  2.741368
  S    -3.727860  2.728911  2.867661
  S    -0.837579 -0.694953 -0.142729
  S    -0.947066  2.911385 -0.138846
  S    -1.402514 -0.167975  3.889809
  S    -1.200613  3.314382  4.000145
