16  
    
  C     2.191283  1.044466  3.453305
  C     2.080839  5.024989  3.146578
  C     0.922065  0.664926  2.905468
  C     0.889464  4.417533  2.466992
  N     3.201501  1.160289  2.603480
  N     3.141633  5.304979  2.350815
  N     0.951748  0.525536  1.579492
  N     0.982405  4.480018  1.135732
  N     0.481839  1.037952  5.414846
  N     0.392435  4.400747  4.909318
  S    -0.365628  0.455255  4.028612
  S    -0.485642  4.122622  3.560789
  S     2.571668  0.868383  1.092741
  S     2.590309  4.895943  0.820363
  S     2.179870  1.320725  5.148873
  S     2.009234  4.730347  4.907845
