16  
    
  C    -2.931425 -1.843339  1.997530
  C    -3.409981  1.580389  2.049872
  C    -4.202573 -2.219327  1.496365
  C    -4.661116  1.239178  1.476235
  N    -1.985726 -1.709315  1.071880
  N    -2.367622  1.531066  1.206031
  N    -4.223443 -2.397489  0.190195
  N    -4.562853  1.050040  0.158228
  N    -4.617336 -2.027478  3.982675
  N    -5.161253  1.616395  4.010990
  S    -5.481343 -2.224635  2.602415
  S    -5.961847  1.177023  2.629674
  S    -2.706552 -2.034549 -0.351832
  S    -2.955595  1.233194 -0.292339
  S    -3.035751 -1.569432  3.690975
  S    -3.532809  1.741542  3.863549
