16  
    
  C    -3.018572 -1.354173  2.057555
  C    -3.225667  1.837516  1.903479
  C    -4.185860 -1.934148  1.447008
  C    -4.392222  1.593861  1.151678
  N    -1.968691 -1.190093  1.267292
  N    -2.080714  1.954068  1.190950
  N    -4.072317 -1.942228  0.114186
  N    -4.123954  1.337494 -0.123493
  N    -4.624482 -1.687110  3.939371
  N    -5.166618  1.748886  3.659815
  S    -5.477029 -1.984427  2.559931
  S    -5.728459  1.182281  2.207645
  S    -2.472220 -1.581312 -0.260734
  S    -2.445099  1.584551 -0.368228
  S    -3.051992 -1.100537  3.768285
  S    -3.539800  1.999145  3.619907
