16  
    
  C     3.262223  1.517675  3.740885
  C     3.270896  4.965671  3.483585
  C     2.008215  1.311436  3.050872
  C     2.031143  4.668168  2.799818
  N     4.329473  1.551173  2.929576
  N     4.300570  5.027776  2.612799
  N     2.041499  1.160408  1.714311
  N     2.111522  4.506979  1.476402
  N     1.439212  1.332760  5.573303
  N     1.318413  5.162804  5.273918
  S     0.598218  1.232211  4.158894
  S     0.636348  4.730761  3.863377
  S     3.642998  1.342483  1.324746
  S     3.667720  4.789679  1.097734
  S     3.038810  1.749021  5.421401
  S     2.948077  5.214407  5.196951
