16  
    
  C     1.875625  0.470579  3.041602
  C     1.864252  4.117309  3.259026
  C     0.579904  0.167178  2.515703
  C     0.581063  4.135225  2.638944
  N     2.802693  0.635591  2.111560
  N     2.917668  4.314220  2.418543
  N     0.515588  0.098185  1.222572
  N     0.664830  3.919134  1.294421
  N     0.246080  0.256715  5.143793
  N     0.188064  4.011375  5.181171
  S    -0.682063  0.164793  3.723882
  S    -0.683746  3.966673  3.774983
  S     2.060717  0.419893  0.648067
  S     2.219035  4.227039  0.946914
  S     1.816808  0.682716  4.758354
  S     1.781279  4.199025  5.049958
