16  
    
  C     3.204292  1.461961  3.672429
  C     3.165077  5.093220  3.499865
  C     1.941879  1.358439  2.987395
  C     1.915681  4.731754  2.814334
  N     4.228796  1.413552  2.848653
  N     4.236108  5.004634  2.722686
  N     1.998423  1.331273  1.647917
  N     2.044975  4.585470  1.505488
  N     1.608119  1.219810  5.545702
  N     1.381045  5.142609  5.247121
  S     0.663477  1.323573  4.183864
  S     0.545401  4.748760  3.873685
  S     3.638953  1.333415  1.284549
  S     3.666041  4.707282  1.158160
  S     3.182271  1.743474  5.349568
  S     3.081464  5.219801  5.204885
