16  
    
  C    -1.371923 -0.651942  1.828548
  C    -1.294779  3.353210  2.055909
  C    -2.672594 -1.194944  1.470476
  C    -2.452960  2.640545  1.512304
  N    -0.508345 -0.609212  0.825671
  N    -0.327211  3.640403  1.208719
  N    -2.782308 -1.400826  0.125454
  N    -2.404653  2.683538  0.209754
  N    -2.683362 -0.782949  3.999984
  N    -2.895818  2.871322  4.048156
  S    -3.654440 -1.492368  2.851914
  S    -3.617232  2.213051  2.692005
  S    -1.300006 -1.102994 -0.515091
  S    -0.935492  3.258871 -0.301074
  S    -1.189960 -0.262423  3.517247
  S    -1.438513  3.659979  3.777142
