16  
    
  C    -2.723889 -1.589257  2.036661
  C    -2.408839  2.100887  2.083051
  C    -4.015616 -1.985673  1.516398
  C    -3.676796  1.882988  1.485987
  N    -1.758618 -1.402777  1.148450
  N    -1.353847  2.077593  1.261508
  N    -4.021859 -2.087738  0.210686
  N    -3.613952  1.812460  0.164393
  N    -4.384336 -1.897499  4.095500
  N    -4.124944  2.186215  3.987658
  S    -5.296160 -2.240018  2.691905
  S    -4.978577  1.984950  2.582848
  S    -2.523798 -1.732668 -0.341375
  S    -2.047160  1.879870 -0.265820
  S    -2.806863 -1.486587  3.826949
  S    -2.444282  2.342164  3.834710
