16  
    
  C    -5.774679 -2.631736  1.362691
  C    -5.559293  0.759850  1.549627
  C    -6.983766 -3.062857  0.691107
  C    -6.774355  0.455463  0.838592
  N    -4.725009 -2.494481  0.543787
  N    -4.474064  0.891113  0.748250
  N    -6.846816 -3.203077 -0.603770
  N    -6.697590  0.240243 -0.487358
  N    -7.578719 -3.047421  3.176949
  N    -7.452122  0.614994  3.341065
  S    -8.384352 -3.386752  1.710316
  S    -8.176336  0.283316  1.870699
  S    -5.291610 -2.806179 -0.999163
  S    -5.073548  0.589123 -0.826600
  S    -5.944388 -2.526983  3.127179
  S    -5.795509  1.101102  3.231893
