16  
    
  C     1.607858  0.916805  3.244311
  C     1.972026  4.511438  3.347710
  C     0.451077  0.384792  2.550489
  C     0.791855  4.076472  2.698316
  N     2.655928  1.148828  2.506372
  N     2.924060  4.710894  2.447790
  N     0.635524  0.242689  1.243904
  N     0.816977  3.762943  1.435705
  N    -0.262762  0.446456  5.051078
  N     0.184862  4.480585  5.159441
  S    -0.925616  0.045635  3.510945
  S    -0.528607  3.960175  3.793983
  S     2.195321  0.763176  0.943502
  S     2.417309  4.185613  0.928123
  S     1.259166  1.204539  4.910365
  S     1.787470  4.902899  4.999685
