16  
    
  C    -3.852438 -2.222572  1.697684
  C    -3.567747  2.078617  1.658751
  C    -5.106718 -2.494860  1.058552
  C    -4.730091  1.439696  1.076537
  N    -2.942286 -1.863875  0.797330
  N    -2.571686  2.225808  0.761114
  N    -5.072981 -2.518878 -0.307541
  N    -4.679421  1.315146 -0.251280
  N    -5.639587 -2.510406  3.583765
  N    -5.148171  1.479186  3.553444
  S    -6.460165 -2.706234  2.181887
  S    -5.965123  0.976954  2.203113
  S    -3.533099 -2.037075 -0.720829
  S    -3.143448  1.764578 -0.691420
  S    -3.966401 -2.358583  3.430160
  S    -3.663477  2.137875  3.364162
