16  
    
  C     3.244846  1.553441  3.721971
  C     3.206242  5.007803  3.438141
  C     1.958235  1.245658  3.106845
  C     2.001339  4.535620  2.807431
  N     4.299674  1.653497  2.917461
  N     4.293658  5.094962  2.677692
  N     2.104533  1.081287  1.815605
  N     2.092422  4.572734  1.479183
  N     1.371815  1.475695  5.531446
  N     1.342723  5.161072  5.223910
  S     0.578149  1.187796  4.093236
  S     0.613505  4.670799  3.824952
  S     3.660282  1.337075  1.347343
  S     3.709203  4.788040  1.090360
  S     3.016434  1.739086  5.475782
  S     3.004799  5.224031  5.194342
