16  
    
  C    -2.496068 -1.230104  2.151541
  C    -2.791920  2.684811  2.324600
  C    -3.696311 -1.668335  1.465328
  C    -3.819620  1.915402  1.736562
  N    -1.436151 -0.872684  1.392612
  N    -1.803983  3.021577  1.491071
  N    -3.383941 -1.886015  0.166412
  N    -3.741968  1.831309  0.385387
  N    -4.137821 -1.738300  4.075645
  N    -4.383872  2.080125  4.270099
  S    -4.916564 -2.129382  2.631343
  S    -5.002138  1.355846  2.860356
  S    -1.872344 -1.241022 -0.138341
  S    -2.235838  2.476364  0.034232
  S    -2.704750 -0.938915  3.830118
  S    -2.847453  2.740835  4.086164
