16  
    
  C    -2.227230 -1.058634  2.043484
  C    -2.642494  2.457390  2.310439
  C    -3.262885 -1.881306  1.481114
  C    -3.808892  1.868955  1.688339
  N    -1.274075 -0.658923  1.212374
  N    -1.765998  2.910689  1.435863
  N    -3.182763 -2.014039  0.181565
  N    -3.717223  1.670912  0.384226
  N    -3.968140 -1.615848  3.948966
  N    -4.389293  2.228895  4.150251
  S    -4.501930 -2.348320  2.614659
  S    -5.108309  1.630335  2.789849
  S    -1.833723 -1.153497 -0.318975
  S    -2.295355  2.378755 -0.090185
  S    -2.422184 -1.016243  3.845557
  S    -2.856447  2.889395  3.992719
