16  
    
  C    -4.607555 -2.373930  1.522093
  C    -4.446424  1.188193  1.880018
  C    -5.822894 -2.765759  0.809312
  C    -5.595226  0.677544  1.200609
  N    -3.623022 -2.061753  0.666964
  N    -3.467246  1.514496  1.036557
  N    -5.760273 -2.748717 -0.499507
  N    -5.657102  0.745004 -0.114166
  N    -6.465425 -2.951871  3.360251
  N    -6.154288  0.656677  3.744474
  S    -7.215279 -3.119888  1.887027
  S    -6.911174  0.386208  2.226563
  S    -4.233937 -2.154125 -0.873424
  S    -4.066663  1.332743 -0.484705
  S    -4.925663 -2.303592  3.216254
  S    -4.513767  1.118685  3.588710
