16  
    
  C    -5.756420 -2.795542  1.204986
  C    -5.786058  0.829169  1.561347
  C    -6.873572 -3.507711  0.659051
  C    -6.998332  0.340422  0.891597
  N    -4.875705 -2.476727  0.243058
  N    -4.754454  1.193550  0.791880
  N    -6.907183 -3.599244 -0.656496
  N    -6.823713  0.166957 -0.428303
  N    -7.435093 -3.125741  3.168994
  N    -7.668956  0.703697  3.403243
  S    -8.118735 -3.781023  1.808786
  S    -8.268970 -0.005424  1.994360
  S    -5.504344 -2.953074 -1.173226
  S    -5.262993  0.703665 -0.752648
  S    -5.822810 -2.750039  2.933885
  S    -5.987623  1.021476  3.336192
