16  
    
  C    -2.871843 -1.690289  2.026534
  C    -2.439215  2.250190  1.976899
  C    -4.058717 -2.177287  1.323611
  C    -3.746125  1.955245  1.459163
  N    -1.945154 -1.267365  1.160682
  N    -1.419979  2.014427  1.127432
  N    -4.011783 -2.176888 -0.026557
  N    -3.723161  1.600267  0.179192
  N    -4.657603 -2.070955  3.875978
  N    -4.186519  2.226157  3.962413
  S    -5.298241 -2.589434  2.439378
  S    -5.059766  2.092900  2.529243
  S    -2.517424 -1.610777 -0.388254
  S    -2.150052  1.599118 -0.304403
  S    -3.057555 -1.593886  3.774362
  S    -2.507439  2.317195  3.707178
