16  
    
  C     2.129756  1.279383  3.437821
  C     2.267399  4.606810  3.236803
  C     0.962431  0.825049  2.711131
  C     1.023880  4.289941  2.554636
  N     3.179188  1.562855  2.673519
  N     3.255011  4.948149  2.437910
  N     1.128007  0.639963  1.403727
  N     1.009483  4.454726  1.240896
  N     0.538369  0.764235  5.245229
  N     0.600621  4.243906  5.170535
  S    -0.322707  0.484541  3.871650
  S    -0.203130  3.861583  3.701205
  S     2.749148  1.110180  1.121613
  S     2.605314  4.877957  0.917941
  S     2.132467  1.119843  5.130233
  S     2.242952  4.762558  4.940095
