16  
    
  C     3.622823  1.671308  3.625550
  C     3.160879  5.217821  3.461074
  C     2.362667  1.291642  3.021703
  C     2.015618  4.526519  2.818629
  N     4.613634  1.927638  2.752234
  N     4.161042  5.539908  2.590827
  N     2.290629  1.247016  1.683948
  N     2.094561  4.580285  1.482330
  N     2.035346  1.279504  5.574294
  N     1.386328  5.163073  5.286877
  S     1.157715  1.132671  4.206397
  S     0.703784  4.397053  3.978687
  S     3.831988  1.718876  1.207545
  S     3.621788  5.121161  1.089205
  S     3.500495  2.020531  5.385339
  S     2.978731  5.397464  5.183582
