16  
    
  C     0.840921  0.070177  2.793660
  C     0.440082  3.615714  2.953344
  C    -0.425110 -0.315027  2.190519
  C    -0.850649  3.603594  2.389795
  N     1.846874  0.117667  1.929884
  N     1.456733  3.851805  2.123696
  N    -0.437387 -0.368780  0.849425
  N    -0.858227  3.701703  1.082012
  N    -0.809271 -0.187572  4.808389
  N    -1.182982  3.036579  4.885799
  S    -1.702263 -0.375483  3.431053
  S    -2.125891  3.211414  3.533369
  S     1.161149 -0.105461  0.441140
  S     0.784973  3.939599  0.606102
  S     0.833857  0.046757  4.595380
  S     0.474246  3.337897  4.658347
