16  
    
  C    -0.294279 -0.401969  2.368099
  C    -0.400972  3.494459  2.845473
  C    -1.586320 -0.890919  1.792001
  C    -1.613013  3.092636  2.191063
  N     0.705439 -0.103087  1.502411
  N     0.630367  3.709351  2.031218
  N    -1.458098 -1.177875  0.515924
  N    -1.404443  2.721238  0.919073
  N    -2.044574 -0.677862  4.310154
  N    -2.115144  3.180516  4.731275
  S    -2.924304 -1.134883  2.954098
  S    -2.938569  2.919937  3.280280
  S     0.123943 -0.704674  0.038033
  S     0.150810  3.247251  0.532700
  S    -0.435932 -0.321490  4.081559
  S    -0.540122  3.766454  4.565668
