16  
    
  C    -0.341581 -0.405454  2.600717
  C    -0.381864  3.198106  2.589271
  C    -1.551838 -0.790558  1.898582
  C    -1.623041  2.879811  1.941361
  N     0.695509 -0.154464  1.844607
  N     0.680062  3.327909  1.777341
  N    -1.276727 -0.918254  0.620722
  N    -1.473932  2.484630  0.652214
  N    -2.283940 -0.556169  4.343258
  N    -2.080246  3.237972  4.474878
  S    -3.004118 -0.994273  2.918660
  S    -2.886777  2.577813  3.146957
  S     0.249159 -0.489528  0.275918
  S     0.090979  2.938522  0.251426
  S    -0.661476 -0.068487  4.240158
  S    -0.495011  3.658263  4.277891
