16  
    
  C    -4.225363 -1.955180  1.851201
  C    -4.171242  1.612476  1.833979
  C    -5.444344 -2.455246  1.221469
  C    -5.341646  0.909687  1.450018
  N    -3.230217 -1.848870  0.983126
  N    -3.169294  1.730884  0.967785
  N    -5.314242 -2.815260 -0.061825
  N    -5.331866  0.551919  0.172984
  N    -5.984183 -2.128152  3.760572
  N    -5.911663  1.785288  3.739144
  S    -6.782326 -2.303582  2.308487
  S    -6.653393  0.951285  2.530573
  S    -3.741839 -2.434285 -0.494814
  S    -3.814435  1.067250 -0.438486
  S    -4.520642 -1.473418  3.504955
  S    -4.284952  1.968148  3.553223
