16  
    
  C    -3.642220 -2.494992  1.779273
  C    -3.482211  1.772955  1.675588
  C    -4.903529 -2.717460  1.081513
  C    -4.560794  1.052954  1.083285
  N    -2.628683 -2.207531  0.936474
  N    -2.382643  1.961419  0.940095
  N    -4.799439 -2.887816 -0.260352
  N    -4.414658  0.758620 -0.190838
  N    -5.484624 -2.806206  3.623204
  N    -5.211663  1.514959  3.594774
  S    -6.256514 -2.971881  2.204168
  S    -5.844294  0.787944  2.215788
  S    -3.187017 -2.539428 -0.608900
  S    -2.878959  1.312329 -0.593271
  S    -3.844564 -2.587315  3.473311
  S    -3.650231  2.109973  3.438812
