16  
    
  C    -3.514886 -2.338894  1.934102
  C    -3.703017  1.957739  1.861233
  C    -4.601377 -2.983672  1.259161
  C    -4.684014  1.110286  1.280963
  N    -2.485839 -2.194706  1.147625
  N    -2.765394  2.330864  1.010193
  N    -4.378626 -3.292450 -0.013254
  N    -4.408745  0.752613  0.036228
  N    -5.365180 -2.481060  3.621008
  N    -5.456527  1.367506  3.781997
  S    -5.989742 -3.278166  2.257892
  S    -5.923630  0.562009  2.403692
  S    -2.850829 -2.804282 -0.331108
  S    -2.997472  1.534538 -0.387128
  S    -3.763930 -2.088241  3.608427
  S    -4.114816  2.304047  3.505532
