16  
    
  C     2.976507  1.512674  3.414037
  C     2.956968  5.143459  3.194932
  C     1.713921  1.203889  2.802034
  C     1.807905  4.520868  2.627720
  N     3.992434  1.674864  2.559743
  N     4.039671  5.173237  2.379223
  N     1.800194  1.165291  1.468682
  N     1.852619  4.401487  1.279652
  N     1.245042  0.954725  5.251636
  N     1.157427  4.986969  5.088502
  S     0.399013  0.826995  3.797158
  S     0.472529  4.409203  3.689326
  S     3.416494  1.398878  1.075844
  S     3.425864  4.785316  0.852639
  S     2.778379  1.594481  5.154234
  S     2.725163  5.392239  4.970749
