16  
    
  C    -2.981481 -1.607418  1.990445
  C    -2.568720  2.062634  2.037039
  C    -4.084789 -2.203557  1.243279
  C    -3.818458  1.785992  1.403908
  N    -1.940573 -1.318870  1.209506
  N    -1.557909  2.155189  1.180510
  N    -3.885799 -2.286212 -0.073765
  N    -3.764354  1.658668  0.071342
  N    -4.764529 -2.250521  3.768226
  N    -4.377768  2.122198  3.886928
  S    -5.413632 -2.590739  2.303215
  S    -5.227020  2.014066  2.424950
  S    -2.293993 -1.787183 -0.342782
  S    -2.152572  1.980467 -0.332476
  S    -3.180454 -1.665168  3.718314
  S    -2.719890  2.398898  3.701635
