16  
    
  C    -4.700529 -2.428893  1.549403
  C    -4.711542  1.013169  1.431541
  C    -5.970200 -2.931031  1.063194
  C    -5.950686  0.747560  0.734873
  N    -3.707476 -2.480600  0.662114
  N    -3.621765  1.141679  0.627509
  N    -5.999601 -3.195249 -0.240241
  N    -5.775218  0.651552 -0.592943
  N    -6.352159 -2.635112  3.575914
  N    -6.622986  0.885263  3.260750
  S    -7.274524 -3.023166  2.217887
  S    -7.323365  0.403832  1.847281
  S    -4.423727 -2.937726 -0.779067
  S    -4.208873  0.915707 -0.922843
  S    -4.696089 -2.392617  3.284947
  S    -4.917167  1.167424  3.186810
