16  
    
  C     1.483096  0.963074  3.280142
  C     1.594377  4.466429  3.384716
  C     0.278725  0.431409  2.680964
  C     0.275934  4.072319  2.929620
  N     2.454453  1.156509  2.389522
  N     2.620816  4.330659  2.513028
  N     0.378287  0.155551  1.355368
  N     0.234988  4.062483  1.582867
  N    -0.315271  0.814277  5.169663
  N    -0.106994  4.693462  5.470771
  S    -1.091815  0.555192  3.759661
  S    -1.041888  4.200409  4.119627
  S     1.887906  0.669654  0.895308
  S     1.761874  4.093252  1.067752
  S     1.356788  1.351541  5.018122
  S     1.561870  4.863095  5.124076
