16  
    
  C     3.263526  1.524000  3.740794
  C     3.259189  4.987030  3.467867
  C     2.006484  1.302461  3.063822
  C     2.025514  4.615277  2.809402
  N     4.333302  1.577324  2.942896
  N     4.306078  5.037834  2.627552
  N     2.054264  1.140106  1.740696
  N     2.114982  4.529637  1.470521
  N     1.423410  1.364403  5.560137
  N     1.313655  5.162319  5.258080
  S     0.588009  1.220519  4.146430
  S     0.638471  4.722798  3.860844
  S     3.643039  1.340976  1.322376
  S     3.672981  4.789537  1.092161
  S     3.031665  1.745963  5.433553
  S     2.954469  5.214779  5.197125
