16  
    
  C    -4.258438 -2.200677  2.030257
  C    -4.148166  1.342434  1.935210
  C    -5.536733 -2.506581  1.519694
  C    -5.451503  1.226639  1.241433
  N    -3.243673 -2.105063  1.199117
  N    -3.077593  1.466116  1.148671
  N    -5.559354 -2.429434  0.177073
  N    -5.311809  1.033746 -0.063726
  N    -5.843456 -2.045533  4.040100
  N    -6.032041  1.442879  3.692185
  S    -6.752719 -2.424605  2.685361
  S    -6.797227  1.161768  2.271721
  S    -3.985849 -2.154367 -0.305651
  S    -3.698997  1.194563 -0.422864
  S    -4.231471 -1.863846  3.759928
  S    -4.357930  1.559312  3.597379
