16  
    
  C    -1.362417 -1.004824  2.267462
  C    -1.572372  2.862930  2.022671
  C    -2.519129 -1.300851  1.543109
  C    -2.624700  2.130185  1.332648
  N    -0.223353 -0.733533  1.555972
  N    -0.539181  3.106263  1.277703
  N    -2.253087 -1.428877  0.233545
  N    -2.368272  1.916053  0.060447
  N    -3.243953 -1.506234  4.063712
  N    -3.301809  2.387740  3.822084
  S    -3.964560 -1.656637  2.544295
  S    -3.866933  1.642435  2.440572
  S    -0.682561 -1.020260 -0.014609
  S    -0.867974  2.552485 -0.260793
  S    -1.729838 -0.814063  3.981436
  S    -1.888505  3.265872  3.696217
