16  
    
  C    -2.052054 -1.084730  2.301470
  C    -1.939009  2.242169  1.997859
  C    -3.359741 -1.208077  1.685345
  C    -3.144342  1.836886  1.367075
  N    -1.020350 -1.037994  1.413003
  N    -0.851827  2.345062  1.237826
  N    -3.300169 -1.414168  0.348838
  N    -3.064165  1.901375  0.038230
  N    -3.847961 -1.004518  4.158355
  N    -3.783298  2.384373  3.808184
  S    -4.669695 -1.227104  2.710008
  S    -4.492686  1.757138  2.430615
  S    -1.719335 -1.198929 -0.090576
  S    -1.468213  2.124095 -0.345452
  S    -2.210915 -0.631798  3.989928
  S    -2.131475  2.440170  3.775682
