16  
    
  C    -5.179096 -2.462734  1.760743
  C    -5.346938  1.103650  1.493427
  C    -6.452562 -2.899825  1.213883
  C    -6.638785  0.943919  0.857524
  N    -4.149481 -2.393475  0.943363
  N    -4.293061  1.163494  0.684868
  N    -6.399207 -2.931384 -0.116890
  N    -6.593879  0.623720 -0.423961
  N    -6.982810 -2.259895  3.655065
  N    -7.146810  1.099775  3.411811
  S    -7.866062 -2.737906  2.316424
  S    -7.985890  0.899461  1.986320
  S    -4.785621 -2.688227 -0.587732
  S    -4.981829  0.830185 -0.844902
  S    -5.344813 -1.944062  3.436362
  S    -5.451239  1.357416  3.258492
