16  
    
  C    -4.164931 -2.027693  1.972225
  C    -4.217378  1.357499  1.820119
  C    -5.494260 -2.341587  1.458886
  C    -5.466714  1.306480  1.050673
  N    -3.275236 -2.062058  1.025031
  N    -3.120099  1.408329  1.093960
  N    -5.594159 -2.519105  0.134361
  N    -5.273885  1.077421 -0.250688
  N    -5.703219 -2.278651  3.997806
  N    -6.112617  1.568311  3.607980
  S    -6.754076 -2.295860  2.677672
  S    -6.814274  1.240922  2.156774
  S    -4.032338 -2.347084 -0.450480
  S    -3.572354  1.151248 -0.531102
  S    -4.055564 -2.026987  3.704840
  S    -4.444381  1.492030  3.559614
