16  
    
  C    -4.375743 -2.411413  1.510434
  C    -4.421638  1.549262  1.955115
  C    -5.505218 -2.994975  0.787945
  C    -5.585528  1.004340  1.358517
  N    -3.293353 -2.133249  0.771805
  N    -3.460038  1.770940  1.075030
  N    -5.332978 -2.997872 -0.556419
  N    -5.613038  0.794879  0.050939
  N    -6.264640 -2.923222  3.273135
  N    -5.898798  1.030042  3.887355
  S    -6.928072 -3.260980  1.783698
  S    -6.793164  0.597318  2.528149
  S    -3.794734 -2.345296 -0.798600
  S    -4.049442  1.311273 -0.364045
  S    -4.731161 -2.358232  3.163107
  S    -4.411989  1.708869  3.664326
