16  
    
  C     1.799280  0.579003  3.056263
  C     1.934007  4.386841  3.371923
  C     0.556960  0.238524  2.433527
  C     0.674476  4.023010  2.731945
  N     2.820799  0.823849  2.187739
  N     2.995009  4.408942  2.560113
  N     0.577981  0.152866  1.103381
  N     0.723508  4.141941  1.414825
  N     0.025041  0.290479  4.941623
  N     0.148433  3.967642  5.273164
  S    -0.733268 -0.081648  3.581570
  S    -0.537238  3.710215  3.770234
  S     2.157135  0.513620  0.669414
  S     2.338083  4.497173  0.987033
  S     1.667408  0.443741  4.786971
  S     1.818252  4.296857  5.115952
