16  
    
  C    -1.411268 -1.008166  2.452988
  C    -1.499345  2.812607  2.130968
  C    -2.499948 -1.471255  1.577360
  C    -2.546206  2.033753  1.466191
  N    -0.388743 -0.632752  1.714749
  N    -0.503977  3.123740  1.328260
  N    -2.217941 -1.591606  0.292803
  N    -2.236145  1.642393  0.247167
  N    -3.385953 -1.439985  4.056330
  N    -3.385259  2.448136  3.848948
  S    -3.941461 -1.768088  2.477930
  S    -3.928308  1.640887  2.501059
  S    -0.692710 -1.054995  0.171288
  S    -0.816762  2.401893 -0.164844
  S    -1.750330 -0.971366  4.131104
  S    -1.840869  3.026691  3.796678
