16  
    
  C    -4.216984 -2.202380  2.110276
  C    -4.161523  1.397832  1.919542
  C    -5.537159 -2.370160  1.466272
  C    -5.370936  1.146005  1.230682
  N    -3.243567 -2.055962  1.195198
  N    -3.112107  1.412666  1.100305
  N    -5.517155 -2.436384  0.148350
  N    -5.286436  1.045200 -0.105117
  N    -5.917888 -1.987687  4.003613
  N    -6.008636  1.416878  3.824442
  S    -6.812049 -2.476142  2.654855
  S    -6.769952  1.126554  2.344675
  S    -3.973709 -2.160045 -0.280058
  S    -3.717872  1.193015 -0.447831
  S    -4.229682 -1.805667  3.784890
  S    -4.355564  1.610738  3.653224
