16  
    
  C    -2.757779 -1.521985  2.140806
  C    -2.425740  2.322429  2.158173
  C    -3.956465 -2.030203  1.534582
  C    -3.750527  2.107327  1.534464
  N    -1.735020 -1.375280  1.267648
  N    -1.394217  2.421525  1.308965
  N    -3.972615 -2.002150  0.171890
  N    -3.584458  1.848006  0.238893
  N    -4.392613 -1.543713  4.028608
  N    -4.184132  1.905889  4.036382
  S    -5.221370 -2.118784  2.690186
  S    -5.039817  1.806030  2.663641
  S    -2.435849 -1.639096 -0.221328
  S    -1.995613  2.059217 -0.206880
  S    -2.781003 -1.419692  3.871753
  S    -2.617008  2.348220  3.909322
