16  
    
  C    -2.094368 -1.004127  2.011713
  C    -2.662171  2.564442  2.124211
  C    -3.142722 -1.853881  1.435977
  C    -3.860027  2.099426  1.522764
  N    -1.158426 -0.696465  1.144981
  N    -1.671170  2.830035  1.295461
  N    -3.092948 -1.974609  0.131251
  N    -3.718253  1.704195  0.249614
  N    -3.539641 -1.875153  3.938451
  N    -4.351413  2.455365  4.039669
  S    -4.432080 -2.245762  2.595139
  S    -5.111392  1.850360  2.716420
  S    -1.660696 -1.239916 -0.340636
  S    -2.178968  2.214264 -0.213948
  S    -2.220695 -0.919150  3.714185
  S    -2.759354  2.855259  3.848166
