16  
    
  C     0.720989 -0.293110  2.825381
  C     0.411981  3.469398  2.935522
  C    -0.576704 -0.317092  2.220423
  C    -0.923223  3.417489  2.261386
  N     1.691228 -0.126446  1.926438
  N     1.457695  3.739028  2.130109
  N    -0.593931 -0.309727  0.895112
  N    -0.772916  3.515643  0.938033
  N    -0.889320 -0.345989  4.748889
  N    -1.359540  3.105745  4.799753
  S    -1.787829 -0.648151  3.357588
  S    -2.180853  2.912644  3.350968
  S     1.004404 -0.109015  0.410085
  S     0.786520  3.883239  0.623316
  S     0.723532 -0.053626  4.518883
  S     0.289235  3.401540  4.669245
