16  
    
  C     0.124878 -0.091577  2.733159
  C     0.125518  3.571015  2.685594
  C    -1.084274 -0.556607  2.107038
  C    -1.112739  3.036099  2.023680
  N     1.092984  0.204191  1.884358
  N     1.137817  3.819323  1.849824
  N    -1.037720 -0.705490  0.796977
  N    -0.888278  2.730260  0.763664
  N    -1.585000 -0.305613  4.565108
  N    -1.777366  3.313845  4.476965
  S    -2.298886 -0.925576  3.207329
  S    -2.348915  2.507959  3.096705
  S     0.477428 -0.164681  0.378164
  S     0.638931  3.267109  0.347587
  S    -0.089726  0.428686  4.378890
  S    -0.259219  3.988215  4.311706
