16  
    
  C     2.945926  1.556162  3.394949
  C     2.953432  5.081084  3.234433
  C     1.686345  1.323240  2.697234
  C     1.738110  4.772789  2.567620
  N     4.041935  1.564663  2.641047
  N     4.061895  5.200643  2.525738
  N     1.838210  1.247606  1.382639
  N     1.981714  4.482699  1.290218
  N     1.219461  1.060714  5.208536
  N     1.176846  4.967193  5.034991
  S     0.440352  0.906129  3.772595
  S     0.383530  4.503068  3.628621
  S     3.426814  1.393696  1.017025
  S     3.555620  4.760224  0.988372
  S     2.798691  1.592970  5.166676
  S     2.809463  5.345389  4.939665
