16  
    
  C    -1.041827 -0.469026  2.393861
  C    -1.160055  2.963397  2.365734
  C    -2.222216 -1.068090  1.742842
  C    -2.456828  2.861718  1.726908
  N     0.038015 -0.168133  1.597689
  N    -0.136315  3.113998  1.505885
  N    -2.059916 -1.138503  0.427882
  N    -2.334531  2.562066  0.430981
  N    -2.845087 -0.963762  4.203511
  N    -2.950760  3.185504  4.246825
  S    -3.541994 -1.442035  2.741067
  S    -3.762158  2.985674  2.800878
  S    -0.556202 -0.537076  0.069031
  S    -0.738624  2.665609  0.047971
  S    -1.269883 -0.418502  4.090320
  S    -1.297545  3.260696  4.111885
