16  
    
  C    -3.782501 -2.442770  1.601890
  C    -3.341610  1.665382  1.622945
  C    -5.093496 -2.386278  0.979812
  C    -4.527952  1.111991  1.011280
  N    -2.769992 -2.291880  0.790475
  N    -2.356194  1.946378  0.772547
  N    -5.063235 -2.120488 -0.335169
  N    -4.488939  0.889640 -0.294010
  N    -5.583814 -2.632849  3.517980
  N    -5.083537  1.477999  3.509975
  S    -6.452238 -2.743139  2.082862
  S    -5.884011  0.947027  2.101750
  S    -3.450345 -2.064230 -0.755908
  S    -3.013182  1.466290 -0.751710
  S    -3.924576 -2.596088  3.347934
  S    -3.564985  2.178248  3.196501
