16  
    
  C     2.091330  0.789739  3.126301
  C     2.141043  4.500341  3.045250
  C     0.779017  0.608668  2.530061
  C     0.982780  3.908952  2.402584
  N     3.094043  0.591546  2.303453
  N     3.154808  4.670974  2.194724
  N     0.793389  0.326411  1.232494
  N     1.086669  3.620931  1.092923
  N     0.368497  1.069162  4.942764
  N     0.211034  4.476747  4.853632
  S    -0.505514  0.582516  3.650194
  S    -0.462560  3.963215  3.429729
  S     2.452856  0.229579  0.803863
  S     2.701429  4.006103  0.734513
  S     1.958196  1.048533  4.826183
  S     1.905922  4.771697  4.665290
