16  
    
  C    -2.664820 -1.908478  2.009397
  C    -2.966336  2.235025  1.831182
  C    -3.905037 -2.003104  1.259696
  C    -3.997660  1.551616  1.129900
  N    -1.636357 -1.850633  1.199614
  N    -1.956259  2.588565  1.031593
  N    -3.800248 -2.211148 -0.043004
  N    -3.901665  1.555401 -0.194917
  N    -4.504351 -1.843029  3.799851
  N    -4.829423  1.705919  3.619144
  S    -5.257111 -2.095766  2.290967
  S    -5.479226  1.378390  2.101905
  S    -2.141181 -2.178665 -0.352865
  S    -2.409556  2.314543 -0.532005
  S    -2.876154 -1.747493  3.723224
  S    -3.270831  2.319962  3.530513
