16  
    
  C    -4.623736 -2.202714  1.502096
  C    -4.453171  1.389291  1.914030
  C    -5.760896 -2.626654  0.741389
  C    -5.595989  0.773308  1.344129
  N    -3.583824 -1.783927  0.790166
  N    -3.521956  1.809434  1.086091
  N    -5.484993 -2.798579 -0.577855
  N    -5.536652  0.759836  0.002450
  N    -6.445667 -2.908977  3.224648
  N    -5.999472  0.870344  3.848003
  S    -7.062436 -3.324479  1.729579
  S    -6.780256  0.324297  2.456147
  S    -3.986383 -2.150564 -0.828128
  S    -4.147186  1.406763 -0.376618
  S    -4.870733 -2.417183  3.198347
  S    -4.410226  1.398985  3.625419
