16  
    
  C    -5.332558 -2.444028  1.433012
  C    -5.376874  1.144106  1.308023
  C    -6.538459 -3.001854  0.867303
  C    -6.548338  0.554533  0.662251
  N    -4.362731 -2.133335  0.548142
  N    -4.328618  1.452537  0.526004
  N    -6.564637 -2.921727 -0.447804
  N    -6.432530  0.411432 -0.654601
  N    -7.115212 -2.647551  3.371760
  N    -7.146657  0.892380  3.189630
  S    -7.927094 -3.052282  1.949468
  S    -7.819041  0.116754  1.776993
  S    -5.059584 -2.414254 -0.955308
  S    -4.877277  0.975582 -1.028404
  S    -5.487090 -2.181576  3.171542
  S    -5.494169  1.244985  3.071610
