16  
    
  C     2.607606  1.058232  3.153333
  C     2.443226  5.014261  3.511644
  C     1.392038  0.650894  2.462819
  C     1.314630  4.430488  2.810774
  N     3.617482  1.325162  2.333340
  N     3.551476  4.951152  2.774165
  N     1.526645  0.563731  1.151267
  N     1.498457  4.384295  1.507283
  N     0.778887  0.670639  4.979614
  N     0.650373  4.508481  5.247128
  S     0.014557  0.400595  3.525654
  S    -0.007978  3.927365  3.800012
  S     3.060980  0.976310  0.816483
  S     3.087275  4.689955  1.224840
  S     2.427621  1.049882  4.866896
  S     2.210167  5.042464  5.206735
