16  
    
  C    -1.333857 -0.990858  2.332002
  C    -1.608179  2.881602  2.040015
  C    -2.512079 -1.296720  1.548108
  C    -2.544722  2.059612  1.361643
  N    -0.228924 -0.720407  1.590889
  N    -0.534489  3.117256  1.285283
  N    -2.244992 -1.479673  0.235174
  N    -2.398836  1.875956  0.031145
  N    -3.265817 -1.524241  4.020358
  N    -3.324710  2.383539  3.851166
  S    -3.975761 -1.669017  2.549730
  S    -3.874561  1.637378  2.445382
  S    -0.682229 -1.021599  0.010838
  S    -0.846278  2.511226 -0.236622
  S    -1.752675 -0.843340  4.001104
  S    -1.876083  3.222997  3.706951
