16  
    
  C     2.240263  0.935834  3.331836
  C     2.137201  4.544927  2.961132
  C     0.958948  0.604058  2.747913
  C     0.882695  4.166827  2.299473
  N     3.216040  1.082234  2.437978
  N     3.144213  4.616259  2.118400
  N     0.966307  0.476943  1.444015
  N     0.916851  4.067050  0.984408
  N     0.364400  1.020077  5.259180
  N     0.373579  4.430813  4.778601
  S    -0.397271  0.533497  3.818475
  S    -0.374614  3.788002  3.431455
  S     2.560074  0.799253  0.910500
  S     2.561981  4.304782  0.545449
  S     2.075011  1.167219  5.066589
  S     1.968267  4.719063  4.763521
