16  
    
  C     2.925467  1.488072  3.473813
  C     2.826343  5.182861  3.174816
  C     1.775648  0.896691  2.823448
  C     1.733737  4.445792  2.621755
  N     3.883787  1.828090  2.623007
  N     3.853724  5.333035  2.358082
  N     1.871394  0.725466  1.515171
  N     1.843425  4.192523  1.321770
  N     1.160894  1.450845  5.258186
  N     1.265266  4.920919  5.108097
  S     0.426993  0.717385  3.944876
  S     0.509023  4.165329  3.866025
  S     3.320952  1.367862  1.055919
  S     3.277672  4.856132  0.867448
  S     2.806684  1.713437  5.189148
  S     2.826339  5.476201  4.871180
