16  
    
  C     2.823857  1.542331  3.538250
  C     2.872043  5.285385  3.371707
  C     1.643544  0.918240  3.013759
  C     1.776377  4.548998  2.742560
  N     3.836376  1.739888  2.696007
  N     3.878066  5.571126  2.519026
  N     1.708737  0.617091  1.725341
  N     1.858977  4.571784  1.395922
  N     1.206327  1.263092  5.528585
  N     1.160786  4.884646  5.279634
  S     0.416784  0.627922  4.234058
  S     0.451025  4.296825  3.942660
  S     3.201378  1.009758  1.237423
  S     3.355034  5.129166  0.984015
  S     2.690140  1.968243  5.133859
  S     2.736871  5.427678  5.058810
