16  
    
  C     2.245887  0.946858  3.309993
  C     2.160245  4.442250  2.936196
  C     0.937895  0.620977  2.739321
  C     0.873071  4.168851  2.285877
  N     3.230471  1.067949  2.435584
  N     3.193634  4.653316  2.106644
  N     0.950617  0.497655  1.425195
  N     0.945971  4.033791  0.984438
  N     0.383260  1.014345  5.233324
  N     0.360794  4.417476  4.813260
  S    -0.407661  0.514479  3.807341
  S    -0.370395  3.789146  3.418352
  S     2.546865  0.812593  0.888691
  S     2.566325  4.269823  0.570800
  S     2.030663  1.203612  5.045566
  S     1.973433  4.696943  4.749533
