16  
    
  C    -0.032654 -0.638492  2.533706
  C    -0.102998  3.393978  2.587450
  C    -1.269089 -1.052627  1.817623
  C    -1.116445  2.555808  1.994002
  N     0.848587 -0.149426  1.684307
  N     0.905584  3.688367  1.788279
  N    -1.102165 -1.204455  0.498829
  N    -0.896476  2.255404  0.723745
  N    -1.815057 -0.964752  4.368126
  N    -1.934076  2.837598  4.391361
  S    -2.557409 -1.322161  2.903168
  S    -2.555927  2.320536  2.926393
  S     0.353429 -0.546600  0.183999
  S     0.437936  3.137556  0.261952
  S    -0.207544 -0.518971  4.313773
  S    -0.383691  3.487832  4.304009
