16  
    
  C    -0.921396 -0.497328  2.478870
  C    -1.066792  3.017170  2.484776
  C    -2.057129 -1.129333  1.781923
  C    -2.318665  2.840554  1.742733
  N     0.160938 -0.293311  1.680858
  N    -0.052875  3.103933  1.659790
  N    -1.912431 -1.204492  0.443968
  N    -2.200156  2.505580  0.452485
  N    -2.681122 -1.170994  4.291685
  N    -2.898755  3.198547  4.258501
  S    -3.425678 -1.528640  2.809999
  S    -3.705206  2.995550  2.835029
  S    -0.334208 -0.711108  0.114183
  S    -0.549381  2.677089  0.140287
  S    -1.113233 -0.599564  4.134918
  S    -1.249349  3.350051  4.153634
