16  
    
  C    -4.372128 -2.419385  1.507922
  C    -4.429215  1.560897  1.959051
  C    -5.505085 -2.985544  0.786666
  C    -5.582764  1.001811  1.354117
  N    -3.284872 -2.136156  0.769936
  N    -3.460879  1.766692  1.076317
  N    -5.332418 -2.998215 -0.551371
  N    -5.606951  0.798532  0.043415
  N    -6.265518 -2.917109  3.281175
  N    -5.905036  1.033718  3.890224
  S    -6.924336 -3.263740  1.787111
  S    -6.794817  0.599595  2.525599
  S    -3.791716 -2.352924 -0.802268
  S    -4.047352  1.306615 -0.360766
  S    -4.729072 -2.356587  3.163719
  S    -4.406852  1.714847  3.666845
