16  
    
  C    -2.697426 -1.577011  2.096268
  C    -2.429771  2.256259  2.122290
  C    -3.977024 -1.961399  1.561238
  C    -3.673239  2.065808  1.502507
  N    -1.750885 -1.416601  1.204820
  N    -1.390238  2.322187  1.268120
  N    -3.990402 -2.066148  0.262054
  N    -3.641365  1.852962  0.189552
  N    -4.426635 -1.652325  4.027889
  N    -4.170181  1.983114  4.040622
  S    -5.223773 -2.154233  2.663347
  S    -4.990636  1.865797  2.628736
  S    -2.491888 -1.665887 -0.245419
  S    -1.999107  1.980735 -0.222609
  S    -2.784307 -1.439381  3.856330
  S    -2.573564  2.338202  3.907847
