16  
    
  C    -2.524222 -1.891307  1.945096
  C    -3.079987  2.168293  1.730902
  C    -3.819813 -2.131137  1.337215
  C    -4.184858  1.593595  0.981648
  N    -1.508760 -2.003246  1.065770
  N    -2.052645  2.507203  0.972189
  N    -3.797050 -2.274284  0.005189
  N    -4.007708  1.512237 -0.342541
  N    -4.317121 -1.759745  3.806286
  N    -4.989754  1.599068  3.520251
  S    -5.108736 -1.824449  2.403883
  S    -5.499115  0.988783  2.056240
  S    -2.206431 -2.170613 -0.414116
  S    -2.485518  2.026815 -0.620892
  S    -2.635457 -1.610533  3.661109
  S    -3.402871  2.254334  3.456194
