16  
    
  C    -3.750851 -2.477466  1.636652
  C    -3.406820  1.768257  1.553565
  C    -5.025752 -2.453706  0.980728
  C    -4.548211  1.126008  0.990667
  N    -2.748716 -2.284196  0.811995
  N    -2.367047  1.810247  0.693238
  N    -4.998351 -2.328876 -0.361927
  N    -4.427636  0.895805 -0.327717
  N    -5.529396 -2.850760  3.510647
  N    -5.069748  1.445056  3.512442
  S    -6.385296 -2.708283  2.086549
  S    -5.817728  0.918618  2.173511
  S    -3.409634 -2.177428 -0.708945
  S    -2.872323  1.316804 -0.766837
  S    -3.923691 -2.611660  3.355889
  S    -3.607258  2.142682  3.315707
