16  
    
  C     3.642890  1.881690  3.627109
  C     3.205802  5.251897  3.494559
  C     2.434889  1.441388  3.013106
  C     1.970476  4.828154  2.839549
  N     4.630288  2.043142  2.718393
  N     4.229974  5.529503  2.663193
  N     2.500005  1.325792  1.691703
  N     2.160193  4.567441  1.562175
  N     1.995132  1.324930  5.540746
  N     1.542591  5.065525  5.343302
  S     1.053558  1.223082  4.137204
  S     0.742522  4.445821  3.982454
  S     4.059616  1.729306  1.253497
  S     3.689191  5.183786  1.201377
  S     3.462723  2.149717  5.305482
  S     3.174056  5.366892  5.143623
