16  
    
  C     2.589709  1.128266  3.341099
  C     2.637491  5.231776  3.634592
  C     1.447729  0.584529  2.617580
  C     1.459145  4.518982  3.171263
  N     3.692861  1.373923  2.629779
  N     3.692907  5.095472  2.823167
  N     1.701265  0.335356  1.359973
  N     1.510701  4.243937  1.871896
  N     0.612536  0.951589  4.966255
  N     1.028582  4.956026  5.657294
  S    -0.093233  0.516301  3.544509
  S     0.249752  4.190744  4.373562
  S     3.236892  0.845743  1.022297
  S     3.072150  4.573767  1.339138
  S     2.239924  1.390688  5.012994
  S     2.619093  5.563709  5.345466
