16  
    
  C    -2.995774 -1.806898  2.176991
  C    -3.319704  1.598305  2.066968
  C    -4.267497 -1.981276  1.522683
  C    -4.601887  1.279758  1.532248
  N    -2.020587 -1.953903  1.317785
  N    -2.399179  1.791914  1.125931
  N    -4.226401 -1.998287  0.177471
  N    -4.654294  1.235154  0.211571
  N    -4.679419 -1.967613  4.114187
  N    -4.983012  1.562540  4.029577
  S    -5.557737 -2.083071  2.717789
  S    -5.837079  1.117052  2.678228
  S    -2.584724 -1.972600 -0.212875
  S    -3.130501  1.534935 -0.284496
  S    -3.048387 -1.635360  3.889081
  S    -3.371966  1.771598  3.713153
