16  
    
  C     3.440336  1.496017  3.621191
  C     3.047182  5.312813  3.404874
  C     2.195937  1.043557  3.127670
  C     1.935347  4.609467  2.747357
  N     4.288116  1.679939  2.607021
  N     4.087065  5.483753  2.618962
  N     2.142782  0.830235  1.818111
  N     2.124857  4.277935  1.502783
  N     1.836753  1.319496  5.624394
  N     1.241794  4.777413  5.174023
  S     0.867972  0.980966  4.288120
  S     0.598992  4.248282  3.736087
  S     3.589800  1.305397  1.212190
  S     3.600637  4.923936  1.096947
  S     3.399555  1.859238  5.298964
  S     2.731339  5.480464  5.057403
