16  
    
  C    -3.762838 -2.352523  1.745997
  C    -3.412640  1.750303  1.621097
  C    -4.979999 -2.693306  1.029479
  C    -4.580498  1.243716  1.055467
  N    -2.727812 -2.235741  0.882527
  N    -2.377463  1.889231  0.818201
  N    -4.869811 -2.673203 -0.311743
  N    -4.415529  0.876694 -0.209426
  N    -5.472664 -2.880050  3.552000
  N    -5.106774  1.467198  3.508680
  S    -6.362350 -2.788031  2.114050
  S    -5.843640  0.804945  2.171572
  S    -3.277919 -2.396924 -0.638345
  S    -2.853668  1.252388 -0.593339
  S    -3.813769 -2.647964  3.409551
  S    -3.574727  2.099474  3.288919
