16  
    
  C     2.519632  1.093478  3.241376
  C     2.605412  4.947418  3.589050
  C     1.389525  0.627262  2.526355
  C     1.365536  4.434252  3.058892
  N     3.618828  1.208815  2.507916
  N     3.570045  5.289215  2.706078
  N     1.612820  0.442995  1.224879
  N     1.482297  4.110487  1.755107
  N     0.616750  1.109474  4.985579
  N     0.995414  4.924339  5.587328
  S     0.049896  0.448699  3.600054
  S     0.199668  4.197266  4.350953
  S     3.258772  0.845935  0.999377
  S     3.008024  4.596416  1.291218
  S     2.296028  1.346822  4.939341
  S     2.491110  5.395816  5.281564
