16  
    
  C    -4.174058 -2.308628  1.582906
  C    -4.311711  1.696156  1.929557
  C    -5.425618 -2.847060  1.059969
  C    -5.453647  1.118092  1.228165
  N    -3.130696 -2.331516  0.749034
  N    -3.221390  1.729864  1.188493
  N    -5.349650 -3.128380 -0.223687
  N    -5.161779  0.679309  0.029786
  N    -5.953027 -2.293807  3.483789
  N    -6.106289  1.512342  3.658386
  S    -6.773594 -2.736922  2.133402
  S    -6.841651  0.990452  2.280458
  S    -3.826891 -2.801857 -0.704412
  S    -3.621944  1.005665 -0.249281
  S    -4.320904 -1.935449  3.297663
  S    -4.531033  2.110948  3.649160
