16  
    
  C     1.379659  0.524327  3.001282
  C     0.935860  4.098012  2.530525
  C     0.188703  0.174497  2.235165
  C    -0.138692  3.424456  1.883405
  N     2.543445  0.380576  2.303079
  N     2.063358  4.237134  1.830323
  N     0.429667 -0.130411  0.963318
  N     0.083596  3.259786  0.603225
  N    -0.580736  0.704403  4.772880
  N    -0.967674  3.686547  4.324989
  S    -1.230300  0.334528  3.244200
  S    -1.620092  3.237419  2.818132
  S     2.065032 -0.036510  0.776353
  S     1.610174  3.820001  0.278113
  S     1.099878  0.947498  4.690545
  S     0.599282  4.144582  4.269033
