16  
    
  C    -0.191448 -0.376212  2.736116
  C     0.234572  3.393237  2.377049
  C    -1.256886 -0.968708  2.001185
  C    -1.040944  3.039783  1.709804
  N     0.924000 -0.146297  2.018068
  N     1.161256  3.678780  1.506010
  N    -1.069252 -0.973644  0.660497
  N    -0.935292  2.932351  0.411772
  N    -2.148548 -0.642621  4.476358
  N    -1.504359  2.828832  4.179003
  S    -2.758074 -1.061937  2.969950
  S    -2.361845  2.722844  2.795745
  S     0.494547 -0.455590  0.469215
  S     0.589449  3.452597 -0.011601
  S    -0.531853 -0.256376  4.492645
  S     0.031587  3.423797  4.061074
