16  
    
  C    -3.446399 -2.124879  1.866614
  C    -3.735204  1.906625  1.926415
  C    -4.494033 -2.915482  1.224780
  C    -4.721367  1.076724  1.309262
  N    -2.337684 -2.022221  1.150267
  N    -2.788940  2.402009  1.135761
  N    -4.255083 -3.229587 -0.031870
  N    -4.350325  0.789565  0.073797
  N    -5.225518 -2.435467  3.689115
  N    -5.575007  1.378411  3.777803
  S    -5.915388 -2.936812  2.275153
  S    -6.002799  0.521999  2.357140
  S    -2.707713 -2.645783 -0.367773
  S    -2.986614  1.679254 -0.347499
  S    -3.670104 -1.760555  3.592358
  S    -4.247285  2.364702  3.551689
