16  
    
  C     1.480990  1.008521  3.312606
  C     1.476271  4.283056  3.459456
  C     0.246267  0.553370  2.760011
  C     0.154203  4.190424  2.916258
  N     2.493026  1.040166  2.449278
  N     2.354981  4.480984  2.478737
  N     0.332252  0.201392  1.456241
  N     0.055826  3.979298  1.607933
  N    -0.216875  0.813610  5.263511
  N    -0.048383  4.670834  5.411395
  S    -1.080059  0.540902  3.846853
  S    -1.000344  4.176398  4.173107
  S     1.896607  0.529130  1.002102
  S     1.645085  4.208386  1.048108
  S     1.303795  1.319695  4.981192
  S     1.512242  4.810342  5.122120
