16  
    
  C    -1.698352 -1.100156  2.583398
  C    -1.852151  2.486750  2.403178
  C    -2.950941 -1.382337  1.889724
  C    -3.100430  2.332267  1.784321
  N    -0.617382 -1.012840  1.816541
  N    -0.759564  2.608475  1.636433
  N    -2.791032 -1.559726  0.585233
  N    -2.994418  2.310342  0.443729
  N    -3.514402 -1.515380  4.433274
  N    -3.631903  2.349177  4.297295
  S    -4.290282 -1.808484  2.955961
  S    -4.378087  2.011748  2.863912
  S    -1.161447 -1.251562  0.257057
  S    -1.367651  2.372312  0.122421
  S    -1.928409 -0.921818  4.290220
  S    -1.993422  2.533923  4.191980
