16  
    
  C     3.175365  1.683086  3.279403
  C     3.073637  5.146428  3.368940
  C     1.890188  1.429709  2.617178
  C     1.850975  4.713409  2.701733
  N     4.194292  1.567008  2.435377
  N     4.154062  4.997084  2.598932
  N     1.966490  1.072083  1.306154
  N     2.001842  4.613202  1.353201
  N     1.472212  1.575228  5.181336
  N     1.282772  5.005455  5.230278
  S     0.541768  1.540878  3.799442
  S     0.463485  4.593431  3.850170
  S     3.593575  1.162638  0.963755
  S     3.666182  4.845236  1.038730
  S     3.097063  1.919888  5.017542
  S     2.923711  5.240801  5.125563
