16  
    
  C     2.806835  1.398693  3.701039
  C     2.973293  5.273923  3.654720
  C     1.574779  1.070475  3.014910
  C     1.737608  5.010038  2.970230
  N     3.877319  1.545296  2.920039
  N     4.026416  5.282907  2.856491
  N     1.657822  0.995320  1.693190
  N     1.819260  4.879169  1.658995
  N     0.978368  0.725962  5.457730
  N     1.092739  4.877204  5.417270
  S     0.193477  0.664038  4.007955
  S     0.322806  4.971381  3.921025
  S     3.194790  1.205413  1.305215
  S     3.397017  4.987270  1.299842
  S     2.515426  1.351834  5.402612
  S     2.767057  5.254699  5.367288
