16  
    
  C     3.160337  1.521946  3.335675
  C     3.121247  4.871783  3.413000
  C     1.899127  1.176701  2.694746
  C     1.916071  4.693967  2.692055
  N     4.186751  1.650614  2.510936
  N     4.161890  5.152920  2.637576
  N     1.950401  1.003027  1.374727
  N     2.057405  4.603953  1.381040
  N     1.296470  1.657677  5.198433
  N     1.204976  5.015742  5.136933
  S     0.532341  1.422455  3.729667
  S     0.490716  4.672805  3.662903
  S     3.479081  1.287235  0.921993
  S     3.620172  4.871255  1.086619
  S     2.960634  1.766907  5.007776
  S     2.850835  5.272988  5.048374
