16  
    
  C    -0.055063 -0.639876  2.544757
  C    -0.064474  3.360718  2.609150
  C    -1.261173 -1.036496  1.835270
  C    -1.142334  2.579114  1.967173
  N     0.837284 -0.139399  1.709484
  N     0.920395  3.709829  1.782726
  N    -1.098456 -1.201536  0.512400
  N    -0.896016  2.262504  0.705540
  N    -1.831880 -0.974402  4.357801
  N    -1.933962  2.841862  4.368326
  S    -2.567115 -1.329468  2.895596
  S    -2.545288  2.317317  2.922312
  S     0.358620 -0.545616  0.190611
  S     0.449176  3.145708  0.254576
  S    -0.206377 -0.509561  4.318144
  S    -0.375755  3.497248  4.312720
