16  
    
  C    -5.044223 -2.576097  1.929361
  C    -5.445294  1.195023  1.628236
  C    -6.301407 -2.845206  1.296049
  C    -6.690983  0.959307  0.930697
  N    -3.996946 -2.508172  1.074426
  N    -4.380331  1.102660  0.847317
  N    -6.203918 -3.267900  0.031966
  N    -6.692899  0.747998 -0.395406
  N    -6.834500 -2.405617  3.797419
  N    -7.196406  1.073393  3.467220
  S    -7.665294 -2.739122  2.404351
  S    -7.997465  0.797929  2.106096
  S    -4.567604 -3.098918 -0.342990
  S    -4.989538  0.775326 -0.713640
  S    -5.201210 -2.177310  3.598411
  S    -5.558561  1.254415  3.413661
