16  
    
  C    -5.048857 -2.551999  1.955115
  C    -5.398766  1.167136  1.679115
  C    -6.233648 -2.998454  1.306833
  C    -6.631981  0.933171  1.059277
  N    -3.968907 -2.675542  1.174705
  N    -4.358395  1.090023  0.849583
  N    -6.087865 -3.331761  0.018496
  N    -6.577022  0.762872 -0.271359
  N    -6.760327 -2.741375  3.774174
  N    -7.226792  1.008623  3.586826
  S    -7.609594 -2.786422  2.332523
  S    -8.011145  0.703625  2.115973
  S    -4.517076 -3.047847 -0.319314
  S    -4.958812  0.738429 -0.648155
  S    -5.164270 -2.132453  3.633814
  S    -5.565986  1.272572  3.362432
