16  
    
  C     2.543694  1.118916  3.234373
  C     2.548893  4.669447  3.538355
  C     1.338809  0.802601  2.485983
  C     1.338472  4.417054  2.759872
  N     3.581648  1.301046  2.447870
  N     3.570735  5.044951  2.754127
  N     1.422252  0.766825  1.171371
  N     1.455067  4.319174  1.445377
  N     0.721255  0.777310  4.979296
  N     0.517879  4.449932  5.217833
  S     0.068278  0.311094  3.500744
  S     0.021231  3.923497  3.733298
  S     3.043998  1.080379  0.840426
  S     3.044650  4.724197  1.156493
  S     2.328486  0.959132  4.983092
  S     2.126878  4.978877  5.236949
