16  
    
  C    -3.060719 -1.763337  1.880993
  C    -3.474682  1.613482  2.125874
  C    -4.310321 -2.272978  1.345527
  C    -4.673809  1.122702  1.465072
  N    -2.142874 -1.488528  0.947860
  N    -2.413902  1.510669  1.335053
  N    -4.161642 -2.659602  0.099093
  N    -4.491538  0.892594  0.179126
  N    -4.649931 -2.072289  3.889446
  N    -5.280051  1.413921  3.828038
  S    -5.530060 -2.439911  2.535871
  S    -6.109546  1.142852  2.404944
  S    -2.687752 -2.130712 -0.486250
  S    -2.889817  1.113330 -0.136189
  S    -3.076399 -1.488948  3.633061
  S    -3.684197  1.864442  3.836021
