16  
    
  C    -4.221899 -2.545750  1.574612
  C    -4.289044  1.623140  1.978297
  C    -5.474876 -2.988131  0.954687
  C    -5.362111  0.934432  1.388570
  N    -3.235182 -2.315487  0.694053
  N    -3.179681  1.751900  1.244819
  N    -5.295648 -3.279807 -0.336300
  N    -5.159647  0.684083  0.070809
  N    -5.972522 -2.558068  3.479486
  N    -6.239824  1.587116  3.762541
  S    -6.781618 -2.874658  2.060432
  S    -6.850944  0.978292  2.354148
  S    -3.785918 -2.824907 -0.776920
  S    -3.633925  1.148611 -0.305797
  S    -4.330286 -2.052305  3.273253
  S    -4.622804  1.953619  3.635853
