16  
    
  C     2.964881  1.564069  3.428200
  C     2.988509  5.099139  3.274929
  C     1.731864  1.312101  2.710551
  C     1.745315  4.754987  2.555540
  N     4.010772  1.585838  2.623125
  N     4.022369  5.151109  2.435190
  N     1.799958  1.215460  1.386198
  N     1.920771  4.382326  1.296060
  N     1.218916  0.954685  5.224648
  N     1.135019  4.961509  5.066727
  S     0.410406  0.860832  3.752575
  S     0.413572  4.456517  3.636529
  S     3.398977  1.393387  1.042679
  S     3.505597  4.787455  0.924798
  S     2.818583  1.606310  5.204740
  S     2.794132  5.374872  4.961460
