16  
    
  C    -3.974373 -1.756165  1.703419
  C    -3.854449  1.536346  1.744723
  C    -5.200149 -2.213736  1.052719
  C    -5.090600  1.327165  1.157534
  N    -2.911079 -1.688109  0.885658
  N    -2.840398  1.664524  0.908385
  N    -4.974873 -2.577832 -0.206190
  N    -5.073340  1.200174 -0.164528
  N    -5.767094 -2.072968  3.496542
  N    -5.534447  1.478756  3.667427
  S    -6.619753 -2.331044  2.025224
  S    -6.381935  1.302799  2.214868
  S    -3.384813 -2.279212 -0.580240
  S    -3.447641  1.475512 -0.559847
  S    -4.192918 -1.504868  3.388433
  S    -3.862914  1.744863  3.500283
