16  
    
  C     2.556206  1.206550  3.363385
  C     2.768881  5.122492  3.727023
  C     1.454578  0.601782  2.663340
  C     1.515755  4.614827  3.184301
  N     3.608957  1.356654  2.556603
  N     3.760174  5.164388  2.825788
  N     1.692137  0.296108  1.386663
  N     1.548938  4.231244  1.911451
  N     0.547653  0.886330  5.040998
  N     1.156077  4.948727  5.635234
  S    -0.003253  0.533602  3.495760
  S     0.314505  4.288196  4.361115
  S     3.236264  0.832335  1.075692
  S     3.070409  4.578158  1.422178
  S     2.180390  1.386772  5.065021
  S     2.606236  5.637133  5.413735
