16  
    
  C     1.154897  0.190659  3.024757
  C     0.587764  3.798899  3.119527
  C    -0.046847 -0.277537  2.335437
  C    -0.392799  3.095668  2.367087
  N     2.215626  0.271745  2.218060
  N     1.693279  4.210640  2.452185
  N     0.148123 -0.439971  1.017949
  N    -0.209408  3.251931  1.032273
  N    -0.697975  0.027020  4.897031
  N    -1.362973  2.995560  4.720993
  S    -1.415220 -0.334747  3.445134
  S    -1.886563  2.664196  3.230848
  S     1.716022 -0.074263  0.672973
  S     1.302030  3.852515  0.845493
  S     0.911445  0.544230  4.779586
  S     0.152603  3.752698  4.817062
