16  
    
  C     3.261889  1.531005  3.732435
  C     3.242246  5.003185  3.450358
  C     1.992942  1.288658  3.076846
  C     2.017401  4.571822  2.817782
  N     4.330686  1.602381  2.946217
  N     4.308891  5.051432  2.645164
  N     2.070002  1.122187  1.771035
  N     2.112292  4.549993  1.469794
  N     1.407706  1.397294  5.548469
  N     1.315048  5.161969  5.244023
  S     0.581561  1.209653  4.131297
  S     0.635896  4.711312  3.853560
  S     3.645986  1.339537  1.324167
  S     3.681698  4.788871  1.088026
  S     3.026054  1.743321  5.447195
  S     2.966367  5.216362  5.197768
