16  
    
  C    -4.715277 -2.451985  1.533596
  C    -4.437278  0.932189  1.716362
  C    -5.979430 -2.725942  0.825892
  C    -5.699260  0.625893  1.050281
  N    -3.767507 -2.094479  0.694000
  N    -3.428284  1.254232  0.913401
  N    -5.916949 -2.812477 -0.531271
  N    -5.656557  0.767490 -0.288554
  N    -6.435132 -2.785860  3.338430
  N    -6.222710  0.657489  3.617948
  S    -7.252948 -3.075492  1.911597
  S    -7.098851  0.485380  2.189086
  S    -4.302018 -2.401010 -0.834491
  S    -4.067206  1.290838 -0.614448
  S    -4.793819 -2.388131  3.240301
  S    -4.632099  1.062600  3.470637
