16  
    
  C    -2.981541 -1.594721  1.994383
  C    -2.556473  2.050105  2.044708
  C    -4.067590 -2.218131  1.240981
  C    -3.827629  1.805994  1.400482
  N    -1.948065 -1.331642  1.206705
  N    -1.555033  2.157867  1.182564
  N    -3.890993 -2.282585 -0.074481
  N    -3.767318  1.658978  0.070877
  N    -4.760873 -2.249913  3.769740
  N    -4.385702  2.108471  3.875014
  S    -5.409403 -2.583926  2.292607
  S    -5.228058  2.003913  2.418474
  S    -2.288046 -1.798509 -0.345331
  S    -2.161496  1.998383 -0.330096
  S    -3.190950 -1.672063  3.725577
  S    -2.737917  2.404483  3.698245
