16  
    
  C     1.417393  0.757768  2.967372
  C     0.994864  4.046725  2.646808
  C     0.187055  0.264169  2.343458
  C    -0.181266  3.648675  1.901232
  N     2.434051  1.019852  2.157210
  N     2.071413  4.407023  1.953716
  N     0.298576  0.109473  1.019466
  N     0.021874  3.443264  0.600164
  N    -0.315805  0.457712  4.858383
  N    -0.927704  3.822107  4.399915
  S    -1.183778  0.110300  3.520522
  S    -1.544710  3.133627  2.947907
  S     1.837431  0.622068  0.581433
  S     1.599098  4.049844  0.328683
  S     1.299037  0.770238  4.733354
  S     0.620350  4.404282  4.348907
