16  
    
  C    -0.929926 -0.495448  2.478955
  C    -1.067266  3.015723  2.489061
  C    -2.053520 -1.116398  1.778288
  C    -2.323563  2.848877  1.741692
  N     0.155740 -0.279455  1.680405
  N    -0.056065  3.101370  1.654453
  N    -1.919302 -1.205533  0.440356
  N    -2.198202  2.495236  0.454896
  N    -2.680142 -1.167349  4.291247
  N    -2.903995  3.197078  4.261796
  S    -3.428295 -1.527302  2.809663
  S    -3.708665  2.999457  2.830393
  S    -0.335214 -0.709752  0.113358
  S    -0.553690  2.677942  0.139183
  S    -1.115685 -0.600694  4.137775
  S    -1.250232  3.348031  4.151855
