16  
    
  C    -2.384815 -1.096869  2.175655
  C    -2.728386  2.648153  2.333074
  C    -3.431708 -1.880571  1.528928
  C    -3.855262  2.020900  1.726984
  N    -1.391379 -0.755128  1.322628
  N    -1.743875  2.987185  1.506030
  N    -3.371670 -1.865298  0.184282
  N    -3.709084  1.750208  0.428169
  N    -4.097691 -1.597237  3.951386
  N    -4.393163  2.137486  4.216652
  S    -4.728522 -2.261640  2.564556
  S    -5.064889  1.394751  2.916610
  S    -1.867315 -1.212053 -0.181427
  S    -2.261325  2.423246 -0.035270
  S    -2.548826 -0.938836  3.888786
  S    -2.891331  2.806679  4.033488
