16  
    
  C    -4.807595 -2.263002  1.725981
  C    -4.843108  0.997904  1.713600
  C    -5.988206 -2.891517  1.141397
  C    -5.982965  0.400596  1.067622
  N    -3.818989 -2.137531  0.835254
  N    -3.815450  1.357984  0.931304
  N    -5.984107 -2.985642 -0.185281
  N    -5.856127  0.210013 -0.232318
  N    -6.406396 -2.688129  3.753826
  N    -6.775997  0.953863  3.503868
  S    -7.178248 -3.202373  2.371452
  S    -7.310180  0.105575  2.130609
  S    -4.399556 -2.607958 -0.650970
  S    -4.336052  0.861492 -0.610185
  S    -4.844166 -2.186193  3.499123
  S    -5.226297  1.476876  3.364880
