16  
    
  C    -4.241764 -1.962554  1.752002
  C    -4.148156  1.543523  1.934992
  C    -5.433133 -2.528308  1.209975
  C    -5.369874  0.949762  1.385999
  N    -3.178647 -1.979520  0.957561
  N    -3.209609  1.739782  1.015970
  N    -5.322524 -2.751144 -0.116542
  N    -5.245331  0.530018  0.126424
  N    -6.019049 -2.078259  3.656492
  N    -5.906037  1.753445  3.689528
  S    -6.809111 -2.373082  2.270943
  S    -6.686962  0.934335  2.484484
  S    -3.764442 -2.503489 -0.551722
  S    -3.837901  1.050404 -0.399068
  S    -4.445962 -1.461979  3.525213
  S    -4.308517  2.053377  3.510926
