16  
    
  C     2.236795  0.933905  3.336241
  C     2.132149  4.566307  2.966262
  C     0.964043  0.600924  2.749251
  C     0.886434  4.166085  2.304828
  N     3.213370  1.085138  2.438325
  N     3.133940  4.608802  2.119932
  N     0.971073  0.472829  1.444098
  N     0.913445  4.072627  0.982932
  N     0.363368  1.020113  5.261781
  N     0.372959  4.432006  4.772578
  S    -0.395131  0.537484  3.821654
  S    -0.375607  3.788749  3.434313
  S     2.561568  0.796399  0.916746
  S     2.560721  4.312173  0.542221
  S     2.083312  1.160177  5.070795
  S     1.967868  4.723525  4.764125
