16  
    
  C     3.348652  1.486798  3.468094
  C     3.197620  5.060011  3.515421
  C     2.018120  1.378795  2.868951
  C     1.948561  4.730899  2.919167
  N     4.299085  1.525111  2.549280
  N     4.204394  5.013112  2.625880
  N     1.946181  1.235374  1.529959
  N     1.956209  4.469888  1.626285
  N     1.706968  1.743373  5.432744
  N     1.420254  5.058029  5.376491
  S     0.752725  1.523213  4.099481
  S     0.552911  4.701174  3.970496
  S     3.531474  1.342934  1.064404
  S     3.536285  4.678265  1.164597
  S     3.336934  1.557439  5.238312
  S     3.050806  5.377013  5.284578
