16  
    
  C    -4.701618 -2.575027  1.635162
  C    -4.871843  1.279005  1.468955
  C    -5.957793 -3.091151  1.120551
  C    -5.977313  0.659330  0.824450
  N    -3.778558 -2.301002  0.751522
  N    -3.803895  1.404412  0.724923
  N    -5.960750 -3.186939 -0.207719
  N    -5.768240  0.423920 -0.484129
  N    -6.319669 -2.789194  3.688313
  N    -6.599834  0.752559  3.364804
  S    -7.219956 -2.994116  2.305371
  S    -7.237137  0.283789  1.910416
  S    -4.437058 -2.695377 -0.731547
  S    -4.242592  0.850232 -0.740852
  S    -4.766774 -2.170548  3.341141
  S    -4.965205  1.270063  3.233908
