16  
    
  C    -0.347773 -0.314207  2.365852
  C    -0.330263  3.472566  2.827777
  C    -1.421690 -0.946372  1.750324
  C    -1.567317  2.999058  2.164405
  N     0.692423 -0.247113  1.557057
  N     0.684712  3.643904  1.978298
  N    -1.328593 -1.123930  0.445622
  N    -1.493671  2.964828  0.816732
  N    -1.965437 -0.625439  4.295381
  N    -2.116111  3.192755  4.699879
  S    -2.692054 -1.187010  2.928206
  S    -2.941941  2.902357  3.279476
  S     0.179977 -0.687131  0.047146
  S     0.093079  3.226249  0.446909
  S    -0.360365 -0.222777  4.118758
  S    -0.524044  3.765293  4.485156
