16  
    
  C    -0.761071 -0.885158  2.428244
  C    -0.894915  3.137454  2.467028
  C    -1.942386 -1.217828  1.772657
  C    -2.115622  2.710435  1.830732
  N     0.339714 -0.626644  1.660759
  N     0.131933  3.100833  1.626167
  N    -1.787612 -1.416786  0.451833
  N    -2.077001  2.677532  0.490852
  N    -2.680263 -0.940800  4.177399
  N    -2.630613  3.003256  4.370380
  S    -3.339924 -1.644294  2.795955
  S    -3.431154  2.677297  2.962321
  S    -0.215208 -0.978697  0.115969
  S    -0.481632  2.810202  0.109292
  S    -1.097047 -0.573935  4.108665
  S    -1.025444  3.388129  4.186553
