16  
    
  C    -5.865483 -2.668695  1.189562
  C    -5.636259  0.832246  1.577453
  C    -7.073045 -3.212677  0.577095
  C    -6.830245  0.482291  0.847090
  N    -4.779304 -2.575836  0.437520
  N    -4.595987  0.944645  0.802170
  N    -7.009070 -3.150616 -0.780552
  N    -6.702644  0.269379 -0.453318
  N    -7.366049 -3.318471  3.209839
  N    -7.503698  0.482254  3.364079
  S    -8.257091 -3.495477  1.816334
  S    -8.217920  0.269477  1.896247
  S    -5.357621 -2.854705 -1.112021
  S    -5.078466  0.573052 -0.780661
  S    -5.967629 -2.498194  2.887196
  S    -5.946060  1.087663  3.246190
