16  
    
  C    -2.706776 -1.705850  1.971584
  C    -3.178206  1.932726  1.744818
  C    -3.986392 -1.861057  1.323928
  C    -4.203582  1.236891  1.041283
  N    -1.721463 -1.577928  1.095770
  N    -2.070133  2.250341  1.029568
  N    -3.911243 -2.137740  0.005372
  N    -3.969096  1.154670 -0.269012
  N    -4.373683 -1.670597  3.870163
  N    -5.112029  1.588692  3.498730
  S    -5.237756 -1.896488  2.479946
  S    -5.683737  1.154864  2.045466
  S    -2.267921 -1.979938 -0.362812
  S    -2.455733  1.831018 -0.533615
  S    -2.748496 -1.415289  3.663908
  S    -3.578828  2.164678  3.433070
