16  
    
  C    -2.935246 -1.669933  1.975581
  C    -2.608969  2.062341  2.012411
  C    -4.065972 -2.189641  1.261544
  C    -3.852660  1.887886  1.352514
  N    -1.864060 -1.393010  1.209355
  N    -1.530970  2.184742  1.224287
  N    -3.851981 -2.326572 -0.051278
  N    -3.762311  1.753913  0.032489
  N    -4.755503 -2.243122  3.720310
  N    -4.453218  1.996665  3.797418
  S    -5.417000 -2.551808  2.226511
  S    -5.230650  1.912629  2.372837
  S    -2.291914 -1.859813 -0.336270
  S    -2.227341  2.088455 -0.336060
  S    -3.223855 -1.695958  3.756937
  S    -2.866474  2.445113  3.724393
