16  
    
  C    -2.486121 -1.203130  2.142848
  C    -2.772625  2.665424  2.303539
  C    -3.619317 -1.724608  1.465861
  C    -3.880128  1.964558  1.724158
  N    -1.421240 -0.837658  1.409330
  N    -1.787410  3.029136  1.482701
  N    -3.374560 -1.885277  0.138489
  N    -3.716947  1.823551  0.430904
  N    -4.115772 -1.692140  4.032659
  N    -4.381562  2.100685  4.258142
  S    -4.864595 -2.166981  2.618864
  S    -5.023246  1.350792  2.889434
  S    -1.873890 -1.228819 -0.135572
  S    -2.232273  2.456999  0.015642
  S    -2.653892 -0.929715  3.844699
  S    -2.863131  2.761120  4.075436
