16  
    
  C     2.505482  1.112192  3.305940
  C     2.960303  5.361338  3.733232
  C     1.345462  0.617708  2.594028
  C     1.618781  5.063337  3.236182
  N     3.583255  1.340774  2.568425
  N     3.939819  5.126981  2.843686
  N     1.575364  0.541851  1.279478
  N     1.603316  4.833738  1.911529
  N     0.705105  0.715842  5.067993
  N     1.332822  5.449093  5.733555
  S     0.000393  0.191133  3.674769
  S     0.357384  5.442319  4.358419
  S     3.189790  0.980914  1.012850
  S     3.198285  4.606188  1.528557
  S     2.286929  1.280731  5.038344
  S     3.023324  5.592732  5.424919
