16  
    
  C    -4.717383 -2.539624  1.458978
  C    -4.553030  1.084716  1.552331
  C    -6.048419 -2.773426  0.867123
  C    -5.847461  0.874272  0.929609
  N    -3.725020 -2.351971  0.590778
  N    -3.488442  1.221174  0.766512
  N    -5.958798 -2.999518 -0.462716
  N    -5.780969  0.868337 -0.398836
  N    -6.446838 -2.702566  3.423632
  N    -6.367505  0.728954  3.339313
  S    -7.301909 -3.023605  2.034771
  S    -7.221245  0.591069  1.933701
  S    -4.351006 -2.667793 -0.919942
  S    -4.144255  0.979865 -0.741859
  S    -4.791308 -2.520866  3.270469
  S    -4.696263  0.926764  3.269749
