16  
    
  C     0.800280  0.361953  2.859679
  C     0.627622  3.590968  2.691737
  C    -0.389164 -0.249322  2.266237
  C    -0.642832  3.241270  2.149411
  N     1.750381  0.562999  2.003255
  N     1.601866  3.829782  1.847307
  N    -0.369410 -0.394553  0.942402
  N    -0.715033  3.463420  0.838178
  N    -0.805797  0.059071  4.766346
  N    -1.059908  3.233279  4.698745
  S    -1.689635 -0.420580  3.396523
  S    -1.928813  3.056909  3.309590
  S     1.183452  0.134816  0.522870
  S     0.902345  3.645019  0.321718
  S     0.751784  0.623096  4.585503
  S     0.608049  3.495566  4.422891
