16  
    
  C    -0.162964 -0.448978  2.409004
  C    -0.360737  3.446560  2.714127
  C    -1.442640 -0.858861  1.738980
  C    -1.580199  3.019961  2.131137
  N     0.821319 -0.230463  1.560705
  N     0.681972  3.506719  1.891349
  N    -1.355574 -1.138021  0.430200
  N    -1.543445  3.045428  0.821690
  N    -1.945142 -0.599450  4.288814
  N    -2.065625  3.235230  4.612132
  S    -2.598450 -1.256574  2.895601
  S    -2.883431  2.899045  3.264491
  S     0.257926 -0.657911  0.051444
  S     0.040536  3.238285  0.374728
  S    -0.319365 -0.114200  4.144233
  S    -0.547054  3.735819  4.475544
