16  
    
  C    -3.938610 -2.079512  1.702171
  C    -3.574993  2.017540  1.656616
  C    -5.143390 -2.570116  1.040863
  C    -4.817969  1.528179  1.089729
  N    -2.932480 -1.829077  0.856849
  N    -2.569411  2.327093  0.872244
  N    -5.105605 -2.560286 -0.261954
  N    -4.724044  1.349491 -0.200616
  N    -5.590547 -2.589332  3.598229
  N    -5.127783  1.371810  3.568888
  S    -6.413113 -2.695229  2.153005
  S    -6.005811  1.009187  2.195605
  S    -3.554884 -2.058409 -0.674783
  S    -3.191133  1.801169 -0.655267
  S    -3.976851 -2.245654  3.442605
  S    -3.648294  2.164506  3.411084
