16  
    
  C     0.697543  0.338177  3.114247
  C     0.717286  3.917950  3.009491
  C    -0.598143  0.154739  2.480042
  C    -0.530464  3.481327  2.367518
  N     1.734117  0.304688  2.285068
  N     1.706712  4.007271  2.089606
  N    -0.533849  0.037512  1.147896
  N    -0.357680  2.939779  1.141513
  N    -1.107975  0.223192  4.979645
  N    -1.178665  3.896463  4.793476
  S    -1.931037  0.278813  3.552216
  S    -1.830403  3.198258  3.477892
  S     1.067518  0.124664  0.770693
  S     1.166294  3.376195  0.691949
  S     0.540930  0.489867  4.786544
  S     0.452019  4.403096  4.644444
