16  
    
  C    -5.271984 -2.799700  1.383408
  C    -5.471316  0.988000  1.316107
  C    -6.441238 -3.431089  0.836922
  C    -6.603029  0.533212  0.598461
  N    -4.358626 -2.485286  0.472786
  N    -4.536456  1.436039  0.491392
  N    -6.448500 -3.519438 -0.493293
  N    -6.409101  0.463662 -0.731956
  N    -7.000167 -2.957382  3.328670
  N    -7.302050  0.569426  3.122063
  S    -7.775814 -3.581283  1.986312
  S    -7.916381  0.097788  1.628455
  S    -5.051990 -2.808948 -1.042077
  S    -4.931130  1.111737 -1.042642
  S    -5.315527 -2.635509  3.170959
  S    -5.704114  1.136739  3.030991
