16  
    
  C    -4.735399 -2.319178  1.496106
  C    -4.588517  0.959878  1.651806
  C    -5.974967 -2.789739  0.889824
  C    -5.808297  0.787826  0.927052
  N    -3.714121 -2.238947  0.643040
  N    -3.564404  1.145148  0.858136
  N    -5.882045 -2.871417 -0.454514
  N    -5.692650  0.790546 -0.416900
  N    -6.443801 -2.694162  3.416450
  N    -6.314230  0.699527  3.537994
  S    -7.286420 -3.055962  2.009137
  S    -7.090401  0.552150  2.083091
  S    -4.345732 -2.562009 -0.879185
  S    -4.072126  1.169981 -0.731738
  S    -4.833985 -2.509690  3.169173
  S    -4.690212  0.985308  3.392000
