16  
    
  C    -0.158236  0.038975  2.562967
  C    -0.096530  3.735766  2.444192
  C    -1.402699 -0.449047  2.013791
  C    -1.203048  2.951704  1.964717
  N     0.765277  0.295300  1.633936
  N     0.982999  3.793626  1.676722
  N    -1.304635 -0.797115  0.714655
  N    -0.977855  2.595922  0.688418
  N    -1.599334 -0.408016  4.594531
  N    -1.772028  3.478348  4.411105
  S    -2.523677 -0.774247  3.253906
  S    -2.527529  2.791377  3.077908
  S     0.197601 -0.312088  0.251113
  S     0.509308  3.201395  0.219426
  S    -0.051477  0.155017  4.320153
  S    -0.205978  4.059314  4.142967
