16  
    
  C     1.977504  0.637519  3.165982
  C     1.832625  4.356435  3.102836
  C     0.658883  0.412033  2.604206
  C     0.559436  3.953306  2.489760
  N     2.975300  0.599196  2.279207
  N     2.882692  4.161267  2.294845
  N     0.683460  0.241061  1.297542
  N     0.661044  3.851434  1.137413
  N     0.414682  0.670552  5.199164
  N     0.218933  4.297787  5.086683
  S    -0.581856  0.234739  3.915554
  S    -0.684502  4.011293  3.674649
  S     2.220296  0.297775  0.827864
  S     2.254386  4.013283  0.780132
  S     1.991012  0.774379  4.912939
  S     1.862887  4.447866  4.845165
