16  
    
  C     0.123232 -0.082856  2.732484
  C     0.125990  3.566955  2.687669
  C    -1.077726 -0.562753  2.106379
  C    -1.119060  3.043674  2.020467
  N     1.091110  0.201822  1.892448
  N     1.143017  3.817790  1.853904
  N    -1.032691 -0.703772  0.802551
  N    -0.879644  2.723254  0.758444
  N    -1.583805 -0.303414  4.563638
  N    -1.779363  3.304956  4.476677
  S    -2.293200 -0.924966  3.206012
  S    -2.347116  2.507689  3.099370
  S     0.486865 -0.165007  0.379481
  S     0.641225  3.274229  0.351291
  S    -0.085172  0.427031  4.380914
  S    -0.254543  3.985562  4.316800
