16  
    
  C    -0.826847 -0.743844  2.332977
  C    -0.718588  3.022184  2.456485
  C    -1.947448 -1.476085  1.712020
  C    -1.986198  2.685279  1.849221
  N     0.196721 -0.548263  1.510271
  N     0.224286  3.315653  1.545973
  N    -1.682031 -1.823585  0.507171
  N    -1.938005  2.392475  0.525693
  N    -2.771616 -0.964348  4.062616
  N    -2.437683  2.742024  4.416579
  S    -3.427474 -1.496958  2.659463
  S    -3.252527  2.565003  2.962913
  S    -0.232621 -1.258048  0.048172
  S    -0.393659  2.818369  0.060405
  S    -1.179601 -0.420049  3.980081
  S    -0.833422  3.240834  4.175059
