16  
    
  C    -0.567747 -0.467834  2.678967
  C    -0.418083  3.340568  2.696967
  C    -1.820216 -1.102331  2.138357
  C    -1.372435  2.506312  2.086498
  N     0.410048 -0.381346  1.759902
  N     0.594397  3.637549  1.919083
  N    -1.755062 -1.361367  0.821550
  N    -1.137580  2.204199  0.815867
  N    -2.186570 -0.863345  4.651026
  N    -2.277882  3.062918  4.501109
  S    -3.120426 -1.011077  3.301507
  S    -2.807776  2.307681  3.066109
  S    -0.240866 -0.870024  0.329774
  S     0.396234  2.819670  0.500420
  S    -0.582278 -0.359804  4.426041
  S    -0.714519  3.728669  4.390903
