16  
    
  C     1.167523  0.195967  2.981157
  C     0.654942  3.814662  3.211918
  C    -0.007542 -0.425992  2.471032
  C    -0.508780  3.368459  2.426764
  N     2.185277  0.298682  2.126546
  N     1.705613  4.062658  2.453414
  N     0.090622 -0.702819  1.141658
  N    -0.270467  3.248672  1.113152
  N    -0.566902  0.193053  4.880397
  N    -1.180542  3.141598  4.886114
  S    -1.384380 -0.474603  3.536048
  S    -1.863459  2.875738  3.417140
  S     1.589532 -0.256331  0.710960
  S     1.232109  3.852941  0.896266
  S     1.089385  0.621131  4.652317
  S     0.444969  3.653413  4.925623
