16  
    
  C     1.920654  0.477430  3.083872
  C     1.890998  4.208637  3.309653
  C     0.583760  0.199512  2.597922
  C     0.603996  4.048539  2.628507
  N     2.848689  0.567323  2.115755
  N     2.842853  4.262840  2.418366
  N     0.491920  0.137629  1.251436
  N     0.605991  3.851425  1.335125
  N     0.233503  0.271621  5.139292
  N     0.150927  4.088502  5.139061
  S    -0.678688  0.158903  3.761155
  S    -0.681916  4.015165  3.755070
  S     2.081870  0.411283  0.631169
  S     2.223323  4.209518  0.851535
  S     1.861641  0.741357  4.800049
  S     1.791114  4.180847  5.039035
