16  
    
  C     2.674653  1.320634  3.652297
  C     2.940456  5.048201  3.596752
  C     1.495624  1.004346  2.898940
  C     1.667107  5.021571  2.929700
  N     3.721428  1.498854  2.856683
  N     3.993816  5.152786  2.786643
  N     1.687276  0.949225  1.577111
  N     1.779452  4.866008  1.601324
  N     0.924210  0.746727  5.403842
  N     1.126354  5.159521  5.497625
  S     0.152952  0.574286  3.911279
  S     0.306149  5.074927  4.099707
  S     3.318399  1.305255  1.356115
  S     3.417462  4.906942  1.251166
  S     2.554547  1.212407  5.388180
  S     2.767606  5.235716  5.377602
