16  
    
  C    -2.824797 -1.703768  1.986019
  C    -2.373351  2.165113  2.016894
  C    -4.059305 -2.095943  1.377304
  C    -3.704306  1.936276  1.444372
  N    -1.924179 -1.263297  1.114196
  N    -1.390159  1.971034  1.151306
  N    -4.049078 -2.159067  0.070813
  N    -3.714823  1.619821  0.158335
  N    -4.580382 -2.025511  3.917513
  N    -4.119052  2.204787  3.921844
  S    -5.293613 -2.576714  2.486565
  S    -5.050850  2.105819  2.545096
  S    -2.545573 -1.611309 -0.417326
  S    -2.165365  1.572663 -0.304313
  S    -3.018383 -1.593026  3.797647
  S    -2.440991  2.347413  3.736518
