16  
    
  C     0.890235  0.322666  2.834895
  C     0.578770  3.486011  2.704939
  C    -0.321001 -0.127300  2.243874
  C    -0.715948  3.434152  2.081106
  N     1.863789  0.604513  2.018009
  N     1.596969  3.663575  1.891817
  N    -0.218323 -0.243116  0.929641
  N    -0.681814  3.283642  0.755097
  N    -0.814839 -0.023466  4.796179
  N    -1.104866  3.260015  4.624181
  S    -1.563835 -0.528404  3.402645
  S    -1.902831  2.921372  3.189792
  S     1.277736  0.229282  0.471615
  S     0.904001  3.655993  0.362580
  S     0.700574  0.489325  4.534339
  S     0.500167  3.549585  4.519826
