16  
    
  C     2.446036  0.979477  3.311158
  C     2.405017  4.678622  3.434129
  C     1.243339  0.738596  2.554809
  C     1.241837  4.276180  2.672496
  N     3.527952  1.322285  2.615336
  N     3.452809  5.095847  2.710099
  N     1.371412  0.940073  1.260950
  N     1.484378  4.061539  1.371085
  N     0.677434  0.608521  5.052111
  N     0.539366  4.278035  5.212963
  S    -0.099638  0.347254  3.612560
  S    -0.129091  3.947186  3.715651
  S     3.002230  1.346084  1.016304
  S     2.988404  4.792444  1.141483
  S     2.217454  1.031709  4.990793
  S     2.214282  4.836862  5.092967
