16  
    
  C    -5.801622 -3.089954  1.585412
  C    -6.032186  0.751956  1.397039
  C    -6.938761 -3.477022  0.802125
  C    -7.214920  0.187991  0.829898
  N    -4.658868 -2.953426  0.920924
  N    -5.253031  1.276311  0.456806
  N    -6.715242 -3.584542 -0.489063
  N    -7.236958  0.137922 -0.491714
  N    -7.740878 -3.113828  3.249145
  N    -7.679589  0.266354  3.397474
  S    -8.396584 -3.496750  1.730504
  S    -8.415630 -0.299721  2.018379
  S    -5.083022 -3.305512 -0.687813
  S    -5.886553  0.946112 -1.011978
  S    -6.085773 -3.000442  3.290402
  S    -6.136873  0.895684  3.090067
