16  
    
  C     1.150169  0.191965  2.905929
  C     0.735255  3.670357  3.180799
  C    -0.025086 -0.415103  2.433262
  C    -0.504512  3.450505  2.499568
  N     2.118013  0.330679  1.978780
  N     1.700728  4.107034  2.328858
  N    -0.011551 -0.835692  1.170934
  N    -0.345664  3.353781  1.154398
  N    -0.484843  0.159241  4.977894
  N    -1.000846  3.249145  5.027875
  S    -1.261295 -0.491947  3.696904
  S    -1.806831  3.057152  3.602832
  S     1.501749 -0.371646  0.616913
  S     1.225867  3.701658  0.857124
  S     1.053976  0.563129  4.657249
  S     0.616844  3.644515  4.887335
