16  
    
  C    -1.045765 -0.454908  2.400411
  C    -1.158668  2.962979  2.360735
  C    -2.221952 -1.075121  1.745202
  C    -2.453301  2.861478  1.730730
  N     0.038940 -0.166507  1.603027
  N    -0.131936  3.116207  1.509083
  N    -2.060044 -1.139873  0.428421
  N    -2.331217  2.556136  0.439460
  N    -2.841532 -0.967359  4.209281
  N    -2.949729  3.183624  4.240991
  S    -3.535904 -1.442082  2.737354
  S    -3.760571  2.990391  2.799415
  S    -0.550124 -0.540819  0.069965
  S    -0.735831  2.664405  0.050716
  S    -1.264361 -0.425987  4.094254
  S    -1.300327  3.261650  4.114362
