16  
    
  C     3.104394  1.468593  3.321439
  C     3.140036  5.048597  3.400814
  C     1.868964  1.150041  2.679319
  C     1.921553  4.621159  2.715742
  N     4.135624  1.616079  2.485556
  N     4.198345  5.101750  2.587675
  N     1.910059  0.974163  1.351558
  N     2.031119  4.583966  1.391182
  N     1.273816  1.658206  5.167193
  N     1.176334  5.028015  5.070100
  S     0.517795  1.347632  3.720881
  S     0.472683  4.674279  3.602144
  S     3.474970  1.367262  0.968607
  S     3.621946  4.876323  1.066420
  S     2.939515  1.720267  5.053562
  S     2.829998  5.263388  5.086873
