16  
    
  C    -1.452998 -1.179950  2.601406
  C    -1.468451  2.705937  2.321724
  C    -2.550858 -1.538391  1.740737
  C    -2.552449  1.970583  1.615766
  N    -0.348102 -0.815674  1.917696
  N    -0.359137  2.808573  1.567589
  N    -2.277134 -1.648823  0.403326
  N    -2.364352  1.810137  0.296525
  N    -3.391177 -1.594952  4.167991
  N    -3.442262  2.455660  4.020458
  S    -3.938751 -1.952213  2.625681
  S    -4.022201  1.752144  2.601461
  S    -0.671931 -1.132534  0.315720
  S    -0.801109  2.323347  0.035642
  S    -1.834901 -0.963074  4.272820
  S    -1.882636  3.028541  3.931690
