16  
    
  C     1.177092  0.194554  2.984540
  C     0.652504  3.779448  3.208914
  C    -0.018150 -0.427267  2.464897
  C    -0.512448  3.382630  2.406164
  N     2.197595  0.300136  2.131770
  N     1.683276  4.074849  2.441400
  N     0.088539 -0.688766  1.143205
  N    -0.258799  3.241034  1.112171
  N    -0.569318  0.188534  4.881770
  N    -1.189036  3.131846  4.877375
  S    -1.383195 -0.466825  3.527290
  S    -1.855353  2.866783  3.401331
  S     1.594914 -0.244942  0.724606
  S     1.234541  3.856533  0.898682
  S     1.077825  0.617584  4.643205
  S     0.427089  3.659776  4.936764
