16  
    
  C    -2.679938 -1.264564  2.160314
  C    -2.569845  2.284704  2.313210
  C    -3.852441 -1.823238  1.541688
  C    -3.726745  1.891139  1.600781
  N    -1.583193 -1.189945  1.364722
  N    -1.657119  2.791123  1.499983
  N    -3.757478 -1.924463  0.201058
  N    -3.617012  1.804236  0.256529
  N    -4.396662 -1.557869  4.050129
  N    -4.278582  1.964011  4.092000
  S    -5.212938 -2.035099  2.682351
  S    -5.040699  1.578746  2.696959
  S    -2.219133 -1.512720 -0.165746
  S    -2.114059  2.452423 -0.048151
  S    -2.793367 -1.262087  3.879586
  S    -2.728203  2.431818  4.018027
