16  
    
  C     1.517978  0.718525  2.877517
  C     0.849512  3.860226  2.543447
  C     0.274317  0.237779  2.292428
  C    -0.327279  3.561579  1.844551
  N     2.598586  0.646098  2.116326
  N     1.889022  4.158528  1.754657
  N     0.483649 -0.161353  1.017196
  N    -0.080605  3.389115  0.525341
  N    -0.326877  0.788544  4.640784
  N    -0.887286  3.665637  4.365511
  S    -1.146025  0.293616  3.283394
  S    -1.625771  3.165545  2.881398
  S     2.074820  0.011861  0.707618
  S     1.503481  3.726526  0.253730
  S     1.288034  1.083788  4.591663
  S     0.710356  4.052044  4.315998
