16  
    
  C     3.133241  1.720348  3.244673
  C     3.093158  5.133644  3.381417
  C     1.860864  1.480288  2.599424
  C     1.829410  4.826438  2.703127
  N     4.244956  1.542566  2.509983
  N     4.168578  5.030540  2.591370
  N     1.983661  1.131019  1.321353
  N     2.019919  4.600419  1.415630
  N     1.494243  1.549973  5.206869
  N     1.282116  5.011902  5.259159
  S     0.598564  1.558807  3.804210
  S     0.485854  4.559767  3.860220
  S     3.588082  1.133126  0.968879
  S     3.617650  4.803339  1.035710
  S     3.132378  1.952875  4.992837
  S     2.946735  5.228942  5.132670
