16  
    
  C    -5.397762 -2.508582  1.373161
  C    -5.453352  1.216983  1.272398
  C    -6.674155 -2.807550  0.769426
  C    -6.557959  0.618505  0.649842
  N    -4.400125 -2.275971  0.538601
  N    -4.404195  1.453194  0.460766
  N    -6.621143 -3.055535 -0.549053
  N    -6.393650  0.525368 -0.666426
  N    -6.975568 -2.918761  3.333457
  N    -7.144576  0.668611  3.108373
  S    -7.809298 -3.203690  1.970566
  S    -7.778492  0.089902  1.748910
  S    -5.038805 -2.586770 -0.994307
  S    -4.885425  1.009909 -1.050013
  S    -5.459828 -2.260552  3.091750
  S    -5.604144  1.170002  2.995715
