16  
    
  C     2.019622  1.015724  3.201594
  C     2.126475  4.473597  2.921581
  C     0.797912  0.681403  2.557278
  C     0.953219  3.880666  2.348262
  N     3.078076  1.096006  2.391494
  N     3.254141  4.539368  2.218472
  N     0.863536  0.613106  1.235903
  N     1.139850  3.674128  1.037377
  N     0.358374  0.873159  5.138083
  N     0.430173  4.228663  4.755475
  S    -0.450047  0.443475  3.675148
  S    -0.411889  3.893601  3.363248
  S     2.531003  0.839722  0.866235
  S     2.741666  4.167643  0.658980
  S     1.947005  1.427980  4.848891
  S     1.983735  4.560287  4.669757
