16  
    
  C     2.515814  1.215101  3.362523
  C     2.853805  5.082132  3.777571
  C     1.432776  0.651791  2.607019
  C     1.628988  4.577822  3.269494
  N     3.600213  1.418087  2.643691
  N     3.750616  5.254071  2.833994
  N     1.687055  0.276780  1.346634
  N     1.636940  4.256598  1.998530
  N     0.590111  0.863583  5.041476
  N     1.140367  4.912391  5.759308
  S     0.017555  0.512986  3.515634
  S     0.367049  4.457291  4.385682
  S     3.221980  0.785755  1.093050
  S     3.153400  4.602524  1.448331
  S     2.122820  1.376902  5.107630
  S     2.621764  5.678383  5.421186
