16  
    
  C    -5.469736 -2.205200  1.485364
  C    -5.231633  0.963839  1.395776
  C    -6.626088 -2.779222  0.880283
  C    -6.505934  0.523026  0.763988
  N    -4.441668 -2.004118  0.688909
  N    -4.256171  1.329099  0.563660
  N    -6.475155 -2.943245 -0.446480
  N    -6.434873  0.346392 -0.546796
  N    -7.107431 -2.528456  3.446251
  N    -7.104157  0.918650  3.284410
  S    -7.879329 -2.895574  2.037780
  S    -7.835518  0.388416  1.838123
  S    -4.963831 -2.388555 -0.804274
  S    -4.910489  0.953040 -0.970698
  S    -5.529511 -2.137472  3.243056
  S    -5.524313  1.350337  3.057122
