16  
    
  C    -1.474018 -1.177806  2.753910
  C    -1.717705  2.646499  2.400242
  C    -2.631909 -1.584891  1.976989
  C    -2.803305  2.053567  1.675796
  N    -0.428553 -0.809336  1.968612
  N    -0.632654  2.720527  1.632713
  N    -2.379910 -1.751917  0.662240
  N    -2.628064  1.855156  0.361237
  N    -3.467707 -1.424940  4.340950
  N    -3.552220  2.391649  4.188886
  S    -4.103555 -1.865855  2.848459
  S    -4.263745  2.179277  2.693843
  S    -0.852820 -1.150727  0.402989
  S    -1.068014  2.304565  0.104225
  S    -1.830591 -1.252574  4.412337
  S    -1.927262  2.818782  4.113354
