16  
    
  C    -5.825855 -3.050812  1.584579
  C    -6.031629  0.779583  1.402631
  C    -6.949482 -3.501994  0.800151
  C    -7.223835  0.186315  0.820397
  N    -4.677463 -2.982763  0.914849
  N    -5.258812  1.291459  0.464781
  N    -6.700519 -3.564370 -0.498130
  N    -7.252601  0.137919 -0.509614
  N    -7.714626 -3.142415  3.266330
  N    -7.649865  0.273788  3.391759
  S    -8.387461 -3.518558  1.748059
  S    -8.397394 -0.322037  2.023466
  S    -5.079795 -3.306944 -0.661142
  S    -5.903965  0.924392 -0.981625
  S    -6.075968 -2.982937  3.257994
  S    -6.129662  0.903294  3.101357
