16  
    
  C    -0.663044 -0.421871  2.630413
  C    -0.346267  3.264309  2.733886
  C    -1.860851 -0.911796  2.053387
  C    -1.458662  2.555209  2.065426
  N     0.328837 -0.262268  1.822562
  N     0.619050  3.687734  1.898946
  N    -1.827263 -1.246854  0.781867
  N    -1.075615  2.132497  0.852384
  N    -2.180689 -0.872598  4.664495
  N    -2.243435  3.050453  4.452636
  S    -3.095982 -0.988293  3.259024
  S    -2.822192  2.306856  3.117063
  S    -0.200565 -0.828963  0.326078
  S     0.410845  2.813374  0.521873
  S    -0.645590 -0.322784  4.404688
  S    -0.721001  3.726206  4.316655
