16  
    
  C    -0.991096 -0.771783  2.310087
  C    -0.768655  3.152248  2.628527
  C    -2.225210 -1.323058  1.727045
  C    -1.918046  2.560661  2.029371
  N    -0.022736 -0.594366  1.431355
  N     0.299672  3.091181  1.849905
  N    -2.137797 -1.629590  0.470163
  N    -1.805078  2.252446  0.719444
  N    -2.847069 -0.775773  4.178527
  N    -2.512930  3.013770  4.438088
  S    -3.652055 -1.359587  2.826625
  S    -3.311381  2.637031  3.090329
  S    -0.571753 -1.215630 -0.024830
  S    -0.250375  2.676289  0.331547
  S    -1.233220 -0.321455  3.932758
  S    -0.920564  3.279037  4.383095
