16  
    
  C    -5.596148 -2.807361  1.583911
  C    -5.495088  0.989011  1.357012
  C    -6.806923 -3.043357  0.845852
  C    -6.676033  0.389532  0.791806
  N    -4.550911 -2.593106  0.819191
  N    -4.412315  1.187107  0.583226
  N    -6.580842 -3.277577 -0.449096
  N    -6.614622  0.210775 -0.542547
  N    -7.402612 -3.192844  3.291146
  N    -7.269895  0.589649  3.231292
  S    -8.182695 -3.247338  1.849365
  S    -8.002582  0.186955  1.859877
  S    -5.001736 -2.901045 -0.694201
  S    -5.081829  0.759526 -0.924414
  S    -5.844104 -2.557389  3.263401
  S    -5.709206  1.108770  3.089071
