16  
    
  C     0.647696  0.215836  3.144325
  C     0.692039  3.993769  2.951989
  C    -0.645498  0.142941  2.436187
  C    -0.496971  3.372030  2.364169
  N     1.667657  0.210354  2.282211
  N     1.770962  4.037108  2.141175
  N    -0.601360  0.019670  1.096295
  N    -0.420496  3.317572  1.041090
  N    -1.089632  0.197169  4.954753
  N    -1.036979  3.782520  4.822403
  S    -1.957373  0.207427  3.533953
  S    -1.817880  3.166680  3.433937
  S     1.029206  0.086483  0.761566
  S     1.206705  3.408576  0.641060
  S     0.560704  0.522872  4.869602
  S     0.475013  4.327008  4.616192
