16  
    
  C    -4.743018 -2.735237  1.497806
  C    -4.657022  0.806601  1.409983
  C    -6.017711 -3.055477  0.945607
  C    -5.914021  0.635548  0.754468
  N    -3.729967 -2.743885  0.657446
  N    -3.595804  1.020175  0.634389
  N    -5.995234 -3.127164 -0.396617
  N    -5.741793  0.743123 -0.576413
  N    -6.400598 -2.583825  3.508181
  N    -6.515908  0.822923  3.247497
  S    -7.283374 -2.987416  2.136995
  S    -7.364060  0.678818  1.775068
  S    -4.401685 -2.912274 -0.878689
  S    -4.199739  0.980030 -0.892933
  S    -4.720700 -2.473632  3.265248
  S    -4.845373  1.067030  3.089309
