16  
    
  C    -3.446971 -2.241659  1.886020
  C    -3.784112  1.988122  1.951663
  C    -4.564245 -2.858626  1.248131
  C    -4.691198  1.037340  1.312483
  N    -2.407410 -2.000526  1.091141
  N    -2.808009  2.336222  1.119261
  N    -4.218747 -3.301669  0.019391
  N    -4.372666  0.790064  0.043207
  N    -5.259120 -2.467668  3.691063
  N    -5.490123  1.349351  3.711823
  S    -5.927980 -2.983774  2.274379
  S    -6.005036  0.487293  2.335981
  S    -2.708688 -2.710735 -0.366706
  S    -3.016191  1.674217 -0.332322
  S    -3.729521 -1.852523  3.597677
  S    -4.212547  2.431573  3.564921
