16  
    
  C    -0.658431 -0.427602  2.641490
  C    -0.348347  3.286135  2.724812
  C    -1.886461 -0.863197  2.044180
  C    -1.435156  2.559314  2.059432
  N     0.316004 -0.242183  1.814775
  N     0.634623  3.678355  1.920405
  N    -1.810067 -1.208555  0.778729
  N    -1.073477  2.116282  0.850234
  N    -2.191004 -0.869337  4.663676
  N    -2.222832  3.056888  4.444769
  S    -3.092498 -0.988827  3.250549
  S    -2.829131  2.303978  3.125675
  S    -0.195999 -0.820591  0.328576
  S     0.401983  2.811550  0.519466
  S    -0.658966 -0.311095  4.392068
  S    -0.725432  3.723942  4.307473
