16  
    
  C    -4.353940 -2.477101  1.485617
  C    -4.454015  1.623061  1.963672
  C    -5.505971 -2.918027  0.772271
  C    -5.601528  0.979162  1.346006
  N    -3.255583 -2.150816  0.762917
  N    -3.460595  1.748530  1.090829
  N    -5.322713 -2.994306 -0.516950
  N    -5.549750  0.824968  0.010765
  N    -6.269906 -2.877798  3.313345
  N    -5.951954  1.053902  3.910931
  S    -6.902301 -3.282762  1.804788
  S    -6.801458  0.615951  2.515416
  S    -3.776021 -2.403643 -0.825797
  S    -4.031176  1.279163 -0.357721
  S    -4.706970 -2.342011  3.181522
  S    -4.384886  1.748493  3.683355
