16  
    
  C    -0.164497 -0.182752  2.549194
  C    -0.024718  3.801182  2.378179
  C    -1.442387 -0.586629  2.013794
  C    -1.205828  3.138021  1.824912
  N     0.735500 -0.033649  1.626617
  N     1.038184  3.721286  1.540586
  N    -1.466398 -0.745565  0.704976
  N    -1.136406  2.859811  0.489900
  N    -1.730876 -0.320425  4.602184
  N    -1.731244  3.494290  4.306946
  S    -2.624536 -0.692476  3.273239
  S    -2.519506  3.029814  2.927955
  S     0.095491 -0.377341  0.103190
  S     0.372143  3.272066  0.049671
  S    -0.107424 -0.104378  4.303578
  S    -0.105022  3.980872  4.145966
