16  
    
  C    -0.985468 -0.719028  2.395403
  C    -0.674155  3.269987  2.772498
  C    -2.224751 -1.008482  1.763650
  C    -1.873767  2.742654  2.176871
  N     0.015362 -0.508494  1.548124
  N     0.436165  3.213931  2.010188
  N    -2.046741 -1.314381  0.472947
  N    -1.725601  2.379754  0.903063
  N    -2.762192 -0.782590  4.255535
  N    -2.400518  3.113450  4.632385
  S    -3.578576 -1.182490  2.836853
  S    -3.210526  2.788713  3.247037
  S    -0.528895 -1.029500  0.064162
  S    -0.149470  2.700255  0.504955
  S    -1.161225 -0.435574  4.117172
  S    -0.799844  3.535279  4.522772
