16  
    
  C    -5.824568 -3.073083  1.526013
  C    -6.075436  0.764844  1.360268
  C    -6.976935 -3.431058  0.719387
  C    -7.306391  0.384837  0.715969
  N    -4.694020 -2.931502  0.846387
  N    -5.138605  1.179235  0.532695
  N    -6.788717 -3.609886 -0.576037
  N    -7.192216  0.321988 -0.572596
  N    -7.829730 -3.192185  3.166575
  N    -7.729967  0.233973  3.224773
  S    -8.419236 -3.391863  1.645909
  S    -8.536375  0.053899  1.769298
  S    -5.152051 -3.242887 -0.772652
  S    -5.665664  0.879129 -0.994104
  S    -6.129505 -3.027077  3.183672
  S    -6.102854  0.767758  3.062813
