16  
    
  C    -0.055992 -0.363612  2.424028
  C    -0.364589  3.395728  2.625126
  C    -1.242124 -1.000162  1.836179
  C    -1.646736  3.149343  2.042139
  N     0.978391 -0.288847  1.594930
  N     0.668233  3.377443  1.788140
  N    -1.143775 -0.934777  0.540303
  N    -1.622837  3.003265  0.725138
  N    -1.897246 -0.603083  4.255624
  N    -2.072415  3.226002  4.627033
  S    -2.580977 -1.307419  2.933756
  S    -2.905536  2.894541  3.192954
  S     0.373344 -0.614691  0.044187
  S    -0.052308  3.246497  0.257769
  S    -0.349862 -0.004818  4.075139
  S    -0.412699  3.659553  4.386840
