16  
    
  C    -3.522778 -2.539466  1.883120
  C    -3.706079  1.969565  1.815064
  C    -4.724006 -3.008549  1.184000
  C    -4.623042  1.008303  1.253205
  N    -2.428551 -2.341504  1.167539
  N    -2.695104  2.307664  1.043705
  N    -4.503836 -3.228423 -0.105539
  N    -4.410708  0.693574 -0.028996
  N    -5.452844 -2.518367  3.639868
  N    -5.399067  1.450354  3.691553
  S    -5.998774 -3.347448  2.317175
  S    -5.974636  0.574356  2.397967
  S    -2.905807 -2.741180 -0.391281
  S    -2.976163  1.475138 -0.460496
  S    -3.806206 -2.166986  3.614613
  S    -3.961994  2.270597  3.572600
