16  
    
  C     1.040302  0.301690  3.008869
  C     0.542488  3.653207  2.974265
  C    -0.091355 -0.100497  2.248584
  C    -0.496109  3.091129  2.171057
  N     2.146975  0.491109  2.268794
  N     1.490246  4.268127  2.237936
  N     0.038215 -0.125037  0.924521
  N    -0.192716  2.977561  0.897169
  N    -0.821085 -0.163591  4.786032
  N    -1.460836  3.177505  4.541391
  S    -1.509794 -0.312685  3.278587
  S    -1.908932  2.537438  3.042760
  S     1.688747  0.248384  0.682827
  S     1.307268  3.684191  0.691182
  S     0.842643  0.244024  4.769853
  S     0.035078  3.764892  4.639384
