16  
    
  C     1.027098  0.038296  2.958488
  C     0.978038  3.969974  2.803664
  C    -0.248021 -0.320736  2.457078
  C    -0.363157  3.524394  2.301049
  N     1.952491  0.122899  2.054355
  N     1.973229  3.914803  1.936882
  N    -0.330635 -0.370609  1.134548
  N    -0.311808  2.983319  1.097429
  N    -0.497842 -0.095579  4.986012
  N    -0.646141  4.141317  4.816482
  S    -1.505595 -0.504351  3.627804
  S    -1.560659  3.350323  3.583707
  S     1.190184 -0.042920  0.556863
  S     1.221482  3.285035  0.495246
  S     1.144010  0.203936  4.685043
  S     0.919478  4.425817  4.460679
