16  
    
  C     2.969446  1.500995  3.401628
  C     2.959691  5.123611  3.199906
  C     1.714610  1.174778  2.801788
  C     1.807576  4.493930  2.625441
  N     4.000912  1.696680  2.580985
  N     4.037541  5.197295  2.368538
  N     1.812741  1.148617  1.479247
  N     1.855116  4.407096  1.283846
  N     1.245660  0.971926  5.254620
  N     1.160300  4.992023  5.085153
  S     0.400246  0.821998  3.818346
  S     0.479329  4.396204  3.706608
  S     3.411452  1.400351  1.073307
  S     3.407816  4.781473  0.843413
  S     2.768994  1.590558  5.139761
  S     2.718344  5.397012  4.962901
