16  
    
  C    -0.115386 -0.187316  2.479093
  C    -0.393372  3.474829  2.528885
  C    -1.243232 -0.834826  1.839281
  C    -1.642358  2.957259  1.979384
  N     0.954313  0.043461  1.734804
  N     0.570350  3.449942  1.599940
  N    -1.061601 -1.110161  0.556709
  N    -1.628498  2.736296  0.649235
  N    -1.989885 -0.651297  4.281383
  N    -1.967521  3.156680  4.519763
  S    -2.693440 -1.156429  2.820452
  S    -2.912402  2.996845  3.144770
  S     0.526172 -0.585370  0.192192
  S    -0.087179  3.140779  0.121959
  S    -0.432201 -0.033279  4.191965
  S    -0.367627  3.381526  4.274514
