16  
    
  C    -2.879385 -1.648098  2.019086
  C    -2.376868  1.946751  2.015114
  C    -4.133979 -1.987212  1.405591
  C    -3.677546  1.817051  1.467466
  N    -1.940987 -1.363554  1.162927
  N    -1.329500  1.867139  1.204066
  N    -4.103718 -2.118481  0.095969
  N    -3.652240  1.676911  0.150617
  N    -4.378825 -2.048250  4.040599
  N    -4.075383  2.287126  4.005966
  S    -5.271786 -2.362407  2.691260
  S    -4.988791  2.093821  2.642957
  S    -2.480634 -1.724565 -0.322669
  S    -2.040549  1.800518 -0.314162
  S    -2.817799 -1.539728  3.732814
  S    -2.443206  2.360433  3.718975
