16  
    
  C     2.220052  0.937863  3.410777
  C     2.080186  4.600840  2.985247
  C     0.965515  0.589912  2.823232
  C     0.828443  4.310299  2.327790
  N     3.230948  1.108760  2.589249
  N     3.117836  4.920261  2.177018
  N     1.019531  0.337952  1.509855
  N     0.925142  4.070071  1.011579
  N     0.576527  0.883683  5.307516
  N     0.321014  4.391008  4.903617
  S    -0.316459  0.662185  3.955616
  S    -0.460490  3.912279  3.445186
  S     2.652844  0.729029  1.080881
  S     2.493367  4.500799  0.673625
  S     2.215106  1.012881  5.096934
  S     1.885137  4.897699  4.610288
