16  
    
  C     2.918715  1.601801  3.450365
  C     2.903454  5.307745  3.228038
  C     1.732848  0.956321  2.938067
  C     1.799095  4.458156  2.735919
  N     3.876201  1.770771  2.550738
  N     3.845653  5.555092  2.286034
  N     1.821024  0.637764  1.646126
  N     1.807942  4.342786  1.404881
  N     1.160359  1.368742  5.418960
  N     1.337632  4.640194  5.222787
  S     0.490104  0.632618  4.058898
  S     0.511313  4.172157  3.871937
  S     3.285890  1.139987  1.099834
  S     3.254150  4.859524  0.856818
  S     2.722192  1.941021  5.183129
  S     2.765295  5.507484  4.973110
