16  
    
  C     1.395240  0.657881  3.094187
  C     0.993906  4.214643  2.763871
  C     0.176656  0.257061  2.482695
  C    -0.068757  3.673679  2.021440
  N     2.365796  0.881539  2.189476
  N     2.024547  4.534333  2.042255
  N     0.166271  0.116854  1.147518
  N     0.111977  3.647628  0.714226
  N    -0.410282  0.699468  4.947052
  N    -0.905117  3.857981  4.395530
  S    -1.120642  0.142193  3.558461
  S    -1.451046  3.275886  2.987200
  S     1.711633  0.529204  0.725991
  S     1.694489  4.161128  0.467753
  S     1.273503  0.921063  4.790620
  S     0.653756  4.369169  4.463743
