16  
    
  C     3.269225  1.518946  3.582154
  C     3.043836  5.131890  3.389977
  C     2.012660  1.087809  3.043079
  C     2.022104  4.362165  2.752148
  N     4.252091  1.560603  2.679030
  N     4.066222  5.477632  2.632677
  N     2.122864  0.839411  1.729649
  N     2.159183  4.348165  1.395729
  N     1.651088  1.464029  5.560989
  N     1.159513  5.077464  5.085240
  S     0.748310  0.962212  4.267013
  S     0.598490  4.139058  3.824205
  S     3.694812  1.144479  1.255104
  S     3.719889  4.997832  1.046179
  S     3.170305  1.992771  5.249347
  S     2.778707  5.380089  5.133803
