16  
    
  C    -1.424998 -1.151013  2.206122
  C    -1.730497  2.317467  1.957871
  C    -2.673506 -1.404378  1.600792
  C    -3.040229  2.109258  1.314379
  N    -0.426823 -1.305038  1.309602
  N    -0.746075  2.343128  1.091986
  N    -2.685242 -1.439473  0.232070
  N    -3.005973  1.975717  0.003298
  N    -3.211844 -1.069904  4.069366
  N    -3.409931  2.232575  3.879444
  S    -4.065262 -1.177390  2.663492
  S    -4.251053  1.829998  2.531446
  S    -1.100764 -1.485718 -0.204958
  S    -1.432954  2.255576 -0.427049
  S    -1.578539 -0.799718  3.897872
  S    -1.784529  2.557113  3.651137
