16  
    
  C     3.135774  1.717117  3.248888
  C     3.091608  5.140502  3.380233
  C     1.863120  1.474499  2.598384
  C     1.829403  4.810381  2.702069
  N     4.242059  1.545902  2.502997
  N     4.166567  5.022726  2.590817
  N     1.981803  1.122575  1.316815
  N     2.019695  4.602133  1.406767
  N     1.492079  1.552698  5.204703
  N     1.281970  5.011083  5.256729
  S     0.590838  1.556914  3.803585
  S     0.481661  4.563569  3.859929
  S     3.588073  1.136297  0.967904
  S     3.624738  4.809484  1.035240
  S     3.129054  1.949232  4.996779
  S     2.944250  5.230171  5.132569
