16  
    
  C    -1.519312 -1.023155  2.216530
  C    -1.816382  2.557054  2.052399
  C    -2.796278 -1.309049  1.649811
  C    -3.085074  2.043446  1.500150
  N    -0.495633 -1.004315  1.367390
  N    -0.789454  2.600228  1.205913
  N    -2.751664 -1.594439  0.377659
  N    -2.946344  1.807584  0.200529
  N    -3.201381 -0.957601  4.219321
  N    -3.450074  2.121968  4.029816
  S    -4.117399 -1.216917  2.843756
  S    -4.338224  1.865834  2.659053
  S    -1.159778 -1.439389 -0.070770
  S    -1.381935  2.148109 -0.245165
  S    -1.560921 -0.953410  3.941307
  S    -1.884132  2.577819  3.813913
