16  
    
  C     2.518493  1.216469  3.366618
  C     2.846522  5.057917  3.782296
  C     1.458128  0.643501  2.612159
  C     1.599179  4.620891  3.241552
  N     3.587142  1.394629  2.608506
  N     3.741650  5.235022  2.816968
  N     1.688919  0.277430  1.359186
  N     1.613536  4.244916  1.971995
  N     0.585479  0.871061  5.061484
  N     1.147118  4.917576  5.714281
  S     0.027354  0.521705  3.499802
  S     0.363290  4.409941  4.375617
  S     3.220564  0.798339  1.094916
  S     3.123678  4.593281  1.452044
  S     2.128328  1.378102  5.101609
  S     2.612928  5.671348  5.420632
