16  
    
  C    -5.429399 -2.397097  1.308090
  C    -5.430172  1.070018  1.297679
  C    -6.618121 -2.983002  0.762973
  C    -6.589396  0.587593  0.568098
  N    -4.420039 -2.337279  0.439186
  N    -4.437256  1.476364  0.491946
  N    -6.547075 -3.044006 -0.587075
  N    -6.465826  0.488034 -0.771290
  N    -6.862640 -3.079514  3.363227
  N    -7.173300  0.500080  3.136882
  S    -7.893270 -3.368475  2.015705
  S    -7.870435  0.098017  1.638983
  S    -4.980987 -2.766892 -1.027887
  S    -4.895859  1.072929 -1.066269
  S    -5.368024 -2.370538  3.059376
  S    -5.595515  1.215314  3.043365
