16  
    
  C     1.452230  1.022712  3.328662
  C     1.432322  4.566911  3.359971
  C     0.177449  0.624339  2.743673
  C     0.083006  4.088744  2.907600
  N     2.513563  0.968929  2.528836
  N     2.395644  4.531868  2.449369
  N     0.298848  0.282864  1.469007
  N     0.035062  3.921143  1.576098
  N    -0.268318  0.819024  5.295150
  N    -0.112934  4.609008  5.462969
  S    -1.111605  0.467811  3.908778
  S    -1.108558  4.148593  4.184357
  S     1.898592  0.419449  1.078356
  S     1.522695  4.287592  1.025024
  S     1.394454  1.325452  5.028227
  S     1.574448  4.732095  5.082509
