16  
    
  C    -2.688172 -1.584373  2.099769
  C    -2.426914  2.254156  2.121311
  C    -3.979433 -1.951180  1.560839
  C    -3.663630  2.054334  1.497168
  N    -1.752934 -1.417922  1.197333
  N    -1.392776  2.310534  1.269774
  N    -3.993606 -2.073715  0.269047
  N    -3.645868  1.854495  0.183009
  N    -4.430840 -1.664265  4.029736
  N    -4.169492  1.991971  4.043074
  S    -5.226314 -2.158457  2.662507
  S    -4.987351  1.871674  2.624351
  S    -2.494906 -1.668423 -0.249835
  S    -2.001473  1.973644 -0.224394
  S    -2.784362 -1.441069  3.853310
  S    -2.567044  2.337477  3.906157
