16  
    
  C    -3.840275 -2.281755  1.633038
  C    -3.523225  1.837311  1.556310
  C    -5.159344 -2.481311  1.013459
  C    -4.720203  1.341533  0.983221
  N    -2.820032 -2.013795  0.837188
  N    -2.472900  2.151081  0.756307
  N    -5.102570 -2.349217 -0.332256
  N    -4.591931  1.120843 -0.335388
  N    -5.590397 -2.371007  3.547492
  N    -5.220985  1.579721  3.604766
  S    -6.479234 -2.742277  2.147399
  S    -5.879211  0.966725  2.200819
  S    -3.522616 -2.022398 -0.719686
  S    -3.081946  1.697061 -0.798850
  S    -3.952747 -2.521736  3.367568
  S    -3.652968  2.143508  3.332536
