16  
    
  C     2.095492  0.785164  3.128090
  C     2.135714  4.511884  3.043839
  C     0.777061  0.600511  2.528925
  C     0.984001  3.898119  2.404459
  N     3.091041  0.593775  2.301611
  N     3.158655  4.662539  2.190308
  N     0.793659  0.317182  1.234567
  N     1.085695  3.625353  1.085819
  N     0.364835  1.065629  4.944652
  N     0.210581  4.476440  4.854490
  S    -0.505693  0.585695  3.657044
  S    -0.468601  3.962782  3.438781
  S     2.453103  0.232083  0.802934
  S     2.694623  4.005788  0.736079
  S     1.962133  1.043034  4.830795
  S     1.907125  4.770052  4.662835
