16  
    
  C    -4.825442 -2.478849  1.896339
  C    -5.211571  1.183938  1.810695
  C    -5.971304 -3.087232  1.262102
  C    -6.389292  0.582186  1.156043
  N    -3.805676 -2.258400  1.055863
  N    -4.190027  1.315071  1.005444
  N    -5.870864 -3.142478 -0.058229
  N    -6.244198  0.194303 -0.094395
  N    -6.703595 -2.788928  3.780854
  N    -7.048410  1.020253  3.647261
  S    -7.391604 -3.258997  2.330108
  S    -7.727742  0.409823  2.177541
  S    -4.332750 -2.677243 -0.457828
  S    -4.670447  0.729976 -0.496904
  S    -5.093996 -2.299112  3.588625
  S    -5.352337  1.359372  3.526662
