16  
    
  C    -0.582128 -0.441808  2.377906
  C    -0.322298  3.484715  2.953064
  C    -1.727256 -0.989667  1.759700
  C    -1.547630  2.976105  2.297596
  N     0.458933 -0.341508  1.594301
  N     0.619265  3.823517  2.057805
  N    -1.679268 -1.127007  0.439141
  N    -1.393391  2.660538  1.028567
  N    -2.232954 -0.776685  4.297886
  N    -2.248347  3.288772  4.806442
  S    -3.027199 -1.020333  2.851586
  S    -2.941040  2.888676  3.281073
  S    -0.119230 -0.671265  0.066277
  S     0.138944  3.137356  0.601642
  S    -0.636893 -0.385362  4.194390
  S    -0.609985  3.734176  4.641084
