16  
    
  C    -4.680012 -2.487610  1.686802
  C    -4.846434  1.174962  1.584534
  C    -5.890362 -3.040912  1.186445
  C    -6.008645  0.637446  0.891734
  N    -3.735203 -2.270829  0.761548
  N    -3.817972  1.451765  0.789051
  N    -5.938493 -3.140478 -0.139753
  N    -5.801649  0.255099 -0.368585
  N    -6.308463 -2.736496  3.653578
  N    -6.566379  0.812074  3.366101
  S    -7.253505 -3.048810  2.318862
  S    -7.276225  0.195969  1.980106
  S    -4.478403 -2.611013 -0.682579
  S    -4.231666  0.874879 -0.745484
  S    -4.787742 -2.146394  3.363026
  S    -5.054158  1.351525  3.318172
