16  
    
  C     0.842614  0.297295  2.853440
  C     0.581094  3.582726  2.736396
  C    -0.388013 -0.152897  2.250838
  C    -0.677013  3.275534  2.079957
  N     1.831211  0.611908  1.989581
  N     1.557837  3.705011  1.827730
  N    -0.305106 -0.324235  0.937555
  N    -0.679302  3.419842  0.740786
  N    -0.809413  0.012018  4.743344
  N    -1.051899  3.245222  4.673765
  S    -1.609524 -0.488630  3.397619
  S    -1.884315  2.991962  3.229058
  S     1.231228  0.183315  0.518304
  S     0.876696  3.642779  0.364875
  S     0.730931  0.565643  4.546552
  S     0.543713  3.516265  4.494617
