16  
    
  C    -0.999139 -0.818477  2.303743
  C    -0.769368  3.166668  2.661703
  C    -2.218230 -1.277277  1.744909
  C    -1.930931  2.560656  2.034392
  N    -0.038665 -0.575857  1.439904
  N     0.304258  3.125414  1.865598
  N    -2.097055 -1.625457  0.486905
  N    -1.806644  2.244557  0.722587
  N    -2.827661 -0.802827  4.182307
  N    -2.513827  3.027517  4.465507
  S    -3.671985 -1.331645  2.837136
  S    -3.306906  2.664058  3.107282
  S    -0.577000 -1.197513 -0.023640
  S    -0.238518  2.667008  0.344751
  S    -1.229821 -0.330649  3.934514
  S    -0.907551  3.284876  4.382432
