16  
    
  C    -3.937250 -1.853435  1.711892
  C    -3.705735  1.741861  1.815673
  C    -5.143647 -2.480260  1.099896
  C    -4.969699  1.477857  1.162521
  N    -2.858796 -1.679193  0.933550
  N    -2.709546  2.049570  0.987871
  N    -4.980221 -2.520655 -0.201417
  N    -4.874285  1.348797 -0.146574
  N    -5.853856 -1.895244  3.440655
  N    -5.454336  1.593494  3.730514
  S    -6.537706 -2.662449  2.145192
  S    -6.199565  1.114667  2.332949
  S    -3.453107 -2.097313 -0.590532
  S    -3.349184  1.763022 -0.556586
  S    -4.186336 -1.553501  3.426472
  S    -3.802494  1.809789  3.599836
