16  
    
  C    -0.826357 -0.763568  2.361401
  C    -0.840437  3.190643  2.377476
  C    -2.009280 -1.371746  1.664745
  C    -2.038717  2.626186  1.872476
  N     0.206624 -0.482471  1.544385
  N     0.223903  3.205558  1.553362
  N    -1.736898 -1.739315  0.434566
  N    -1.929865  2.433842  0.541420
  N    -2.722011 -0.854726  4.106638
  N    -2.421182  2.790811  4.345856
  S    -3.347918 -1.561029  2.687757
  S    -3.327122  2.608357  3.012280
  S    -0.173410 -1.216088  0.098630
  S    -0.422845  2.888561  0.071079
  S    -1.128420 -0.533655  4.077343
  S    -0.850504  3.266767  4.165733
