16  
    
  C     0.826777  0.458200  3.031093
  C     0.529232  3.968230  2.929938
  C    -0.423488  0.002040  2.401715
  C    -0.728058  3.457201  2.369247
  N     1.872842  0.434910  2.192084
  N     1.525084  3.816204  2.053808
  N    -0.306458 -0.166968  1.105268
  N    -0.689794  3.084940  1.097968
  N    -0.968795  0.256493  4.882660
  N    -1.127576  3.773393  4.950306
  S    -1.801454  0.094605  3.464949
  S    -1.942587  3.316067  3.566807
  S     1.277305  0.104789  0.652721
  S     0.865649  3.389470  0.622082
  S     0.637360  0.678788  4.750098
  S     0.472970  4.123915  4.705107
