16  
    
  C     2.956809  1.478297  3.433678
  C     3.027622  4.984608  3.234390
  C     1.741156  1.062880  2.755729
  C     1.793356  4.516411  2.623400
  N     4.004175  1.754208  2.662923
  N     3.951459  5.302365  2.341093
  N     1.849570  1.035588  1.428634
  N     1.856531  4.369534  1.306640
  N     1.211159  1.080275  5.286741
  N     1.146623  5.006569  5.078622
  S     0.401634  0.800283  3.908468
  S     0.472246  4.317607  3.763876
  S     3.390569  1.418479  1.060464
  S     3.359988  4.782273  0.836414
  S     2.758249  1.587774  5.096882
  S     2.749178  5.428508  4.906213
