16  
    
  C     1.436493  0.953029  3.403669
  C     1.387006  4.522192  3.295256
  C     0.182140  0.598610  2.837569
  C     0.025058  4.228795  2.826511
  N     2.461991  0.844573  2.550437
  N     2.209705  4.869744  2.268658
  N     0.267651  0.270765  1.524904
  N    -0.018002  3.933642  1.520301
  N    -0.278543  0.896247  5.333423
  N    -0.098491  4.393790  5.403558
  S    -1.043718  0.431315  3.982779
  S    -1.097578  4.099778  4.147958
  S     1.869485  0.337168  1.119211
  S     1.450668  4.292145  0.937416
  S     1.369847  1.278151  5.114647
  S     1.446122  4.656322  5.051724
