16  
    
  C    -4.245449 -2.210269  2.055754
  C    -4.138154  1.365357  1.948814
  C    -5.546898 -2.437279  1.490514
  C    -5.402598  1.189769  1.219396
  N    -3.240770 -2.081825  1.206143
  N    -3.101129  1.440949  1.131133
  N    -5.530254 -2.430860  0.166668
  N    -5.287849  1.037643 -0.091086
  N    -5.883975 -2.009361  4.024471
  N    -6.029250  1.428256  3.771014
  S    -6.783057 -2.454590  2.664231
  S    -6.781296  1.142681  2.313903
  S    -3.983748 -2.154118 -0.288747
  S    -3.716736  1.193750 -0.438529
  S    -4.226203 -1.830499  3.777990
  S    -4.357536  1.586098  3.622613
