16  
    
  C     1.324105  0.765679  3.203154
  C     1.083491  4.326640  2.951457
  C     0.057474  0.353475  2.645854
  C    -0.049133  3.944149  2.149743
  N     2.378600  0.801679  2.367292
  N     2.118360  4.807734  2.255269
  N     0.094089  0.072940  1.339973
  N     0.156434  3.771926  0.837664
  N    -0.259525  0.748474  5.185189
  N    -0.720206  3.911468  4.680277
  S    -1.194515  0.289930  3.868094
  S    -1.415203  3.585729  3.203737
  S     1.684028  0.321675  0.889834
  S     1.774224  4.308793  0.650940
  S     1.279828  1.193351  4.849603
  S     0.813516  4.354212  4.706576
