16  
    
  C    -4.209800 -2.098990  2.079599
  C    -4.166549  1.446644  1.883266
  C    -5.507627 -2.293491  1.497600
  C    -5.445376  1.088078  1.269929
  N    -3.239494 -1.996995  1.196905
  N    -3.111247  1.376852  1.042720
  N    -5.516366 -2.429707  0.154066
  N    -5.344417  1.038024 -0.071442
  N    -5.963799 -1.964832  3.959403
  N    -5.946848  1.387653  3.849076
  S    -6.844059 -2.498722  2.636091
  S    -6.743663  1.088921  2.404356
  S    -3.919253 -2.190091 -0.288013
  S    -3.693688  1.186261 -0.464713
  S    -4.279344 -1.764473  3.794670
  S    -4.331812  1.670626  3.700877
