16  
    
  C    -2.996260 -1.627868  2.286476
  C    -3.331807  1.797377  2.034419
  C    -4.258744 -1.934969  1.656805
  C    -4.605135  1.487572  1.447317
  N    -1.991012 -1.652631  1.415012
  N    -2.438137  2.024881  1.076314
  N    -4.211946 -1.901154  0.329835
  N    -4.612954  1.293933  0.129288
  N    -4.805080 -1.882431  4.084906
  N    -4.911743  1.339506  4.083570
  S    -5.644736 -1.854180  2.666620
  S    -5.809375  1.054229  2.687878
  S    -2.616970 -1.886940 -0.078924
  S    -3.112296  1.740011 -0.416822
  S    -3.134195 -1.639433  4.031395
  S    -3.303260  1.893639  3.817338
