16  
    
  C    -0.859151 -0.726943  2.313441
  C    -0.719135  2.995995  2.421998
  C    -1.977930 -1.522563  1.739119
  C    -1.978928  2.661498  1.863607
  N     0.200999 -0.581717  1.495861
  N     0.243154  3.323628  1.543713
  N    -1.668777 -1.832591  0.484374
  N    -1.932449  2.414148  0.541650
  N    -2.766336 -0.970399  4.073619
  N    -2.430055  2.736507  4.394057
  S    -3.430200 -1.486666  2.643869
  S    -3.249518  2.554267  2.963578
  S    -0.248967 -1.260233  0.046053
  S    -0.384936  2.799812  0.062669
  S    -1.190161 -0.391269  3.975274
  S    -0.841270  3.238308  4.188857
