16  
    
  C    -4.748685 -2.394970  1.719442
  C    -4.822975  1.128824  1.664313
  C    -5.981470 -2.843990  1.157858
  C    -5.886884  0.372848  1.057175
  N    -3.790292 -2.181014  0.819027
  N    -3.792803  1.374859  0.824324
  N    -5.968440 -3.080728 -0.159349
  N    -5.754497  0.296123 -0.280845
  N    -6.388153 -2.650533  3.715331
  N    -6.777001  0.903292  3.486072
  S    -7.192021 -3.162254  2.336191
  S    -7.337310  0.111422  2.108770
  S    -4.440287 -2.588517 -0.676457
  S    -4.306087  0.866582 -0.670195
  S    -4.801583 -2.160105  3.475018
  S    -5.158419  1.436497  3.335379
