16  
    
  C    -5.678412 -3.059192  1.466375
  C    -6.051913  0.929325  1.480073
  C    -6.867642 -3.499284  0.801988
  C    -7.138402  0.181795  0.931835
  N    -4.691565 -2.730556  0.613796
  N    -5.163734  1.288533  0.600489
  N    -6.851402 -3.750505 -0.498224
  N    -7.158854  0.095803 -0.383395
  N    -7.479073 -3.514319  3.281508
  N    -7.471247  0.180543  3.463649
  S    -8.159846 -3.867968  1.827402
  S    -8.298467 -0.263008  2.147398
  S    -5.320695 -3.232094 -0.915170
  S    -5.705305  0.797995 -0.909333
  S    -6.002462 -2.789279  3.176509
  S    -6.072431  1.032534  3.203062
