16  
    
  C    -0.060211 -0.460074  2.490498
  C    -0.369790  3.358236  2.577889
  C    -1.307301 -0.877238  1.730180
  C    -1.616921  3.035008  2.001936
  N     0.963893 -0.206857  1.690506
  N     0.598139  3.481554  1.693930
  N    -1.145236 -1.087130  0.417229
  N    -1.660450  3.039968  0.688842
  N    -1.884674 -0.599275  4.311770
  N    -1.960195  3.200529  4.519969
  S    -2.520154 -1.259138  2.891730
  S    -2.944555  2.945519  3.228485
  S     0.469777 -0.560184  0.146956
  S    -0.050474  3.184364  0.209827
  S    -0.363469  0.044079  4.106056
  S    -0.405191  3.534387  4.278563
