16  
    
  C    -5.297243 -2.734614  1.369111
  C    -5.456152  0.989133  1.309805
  C    -6.442163 -3.415577  0.841185
  C    -6.607632  0.520109  0.597055
  N    -4.376204 -2.490732  0.454141
  N    -4.489437  1.442929  0.492847
  N    -6.448292 -3.491506 -0.509021
  N    -6.414486  0.447064 -0.736719
  N    -6.983144 -2.979875  3.342593
  N    -7.307063  0.539319  3.129332
  S    -7.755060 -3.564017  1.970274
  S    -7.909025  0.114085  1.634649
  S    -5.064609 -2.812856 -1.030816
  S    -4.934323  1.126722 -1.035283
  S    -5.314928 -2.623789  3.157056
  S    -5.709721  1.141548  3.006821
