16  
    
  C     2.559657  1.077789  3.287088
  C     2.620397  5.025353  3.607705
  C     1.405268  0.610544  2.556388
  C     1.382689  4.525721  3.077481
  N     3.643087  1.285079  2.556813
  N     3.584110  5.203304  2.718427
  N     1.678418  0.397295  1.274558
  N     1.510675  4.174535  1.801909
  N     0.664578  1.063340  4.977448
  N     0.970508  4.951076  5.658548
  S    -0.042556  0.478086  3.586814
  S     0.219417  4.172186  4.385292
  S     3.257765  0.855162  1.018279
  S     3.051894  4.583383  1.312367
  S     2.263895  1.366758  4.963185
  S     2.550883  5.463660  5.286731
