16  
    
  C     2.162602  1.303449  3.413897
  C     2.252988  4.741078  3.239350
  C     0.987169  0.832788  2.734081
  C     1.037751  4.251680  2.571536
  N     3.165467  1.591133  2.640950
  N     3.304930  4.919671  2.448594
  N     1.145130  0.651544  1.425282
  N     1.011584  4.431410  1.242085
  N     0.530002  0.742103  5.296525
  N     0.606526  4.240876  5.111722
  S    -0.283048  0.489758  3.818510
  S    -0.156176  3.860178  3.722810
  S     2.778177  1.137239  1.120987
  S     2.630906  4.854409  0.952165
  S     2.119984  1.069634  5.122058
  S     2.227189  4.743209  4.966587
