16  
    
  C    -1.339247 -0.656725  1.878074
  C    -1.241460  3.480863  2.129660
  C    -2.653709 -1.195848  1.489883
  C    -2.384584  2.705073  1.624556
  N    -0.534034 -0.421833  0.847172
  N    -0.320704  3.648519  1.200004
  N    -2.755332 -1.501402  0.209310
  N    -2.363392  2.562989  0.311228
  N    -2.816789 -0.578219  3.973489
  N    -2.745438  2.917527  4.161915
  S    -3.711384 -1.275637  2.812806
  S    -3.589947  2.374274  2.809556
  S    -1.274126 -0.995817 -0.538214
  S    -0.975875  3.205273 -0.251239
  S    -1.270469 -0.121441  3.594945
  S    -1.177561  3.465620  3.840981
