16  
    
  C    -4.849646 -2.358139  1.861035
  C    -5.070143  1.154872  1.805495
  C    -5.975738 -3.019436  1.214713
  C    -6.238765  0.642848  1.156892
  N    -3.838636 -2.208947  0.999330
  N    -4.046177  1.398264  0.950232
  N    -5.866702 -3.149886 -0.105697
  N    -6.046354  0.271194 -0.109976
  N    -6.429045 -3.097442  3.683228
  N    -6.902617  0.928319  3.620076
  S    -7.303791 -3.224311  2.291181
  S    -7.574830  0.237280  2.280530
  S    -4.404743 -2.569636 -0.512698
  S    -4.433129  0.674822 -0.498168
  S    -5.012233 -2.159118  3.591856
  S    -5.337438  1.424307  3.456974
