16  
    
  C     1.100920  0.262561  3.033045
  C     0.403536  3.821359  3.005460
  C    -0.075766 -0.074004  2.305459
  C    -0.470596  2.955761  2.144099
  N     2.185729  0.451243  2.297596
  N     1.517351  4.172351  2.366614
  N     0.095888 -0.158323  1.024664
  N    -0.169957  3.040888  0.843295
  N    -0.755151 -0.085050  4.756556
  N    -1.476713  3.118572  4.536199
  S    -1.456840 -0.290380  3.292309
  S    -1.842835  2.531677  3.070159
  S     1.662437  0.123738  0.766043
  S     1.307219  3.761073  0.794319
  S     0.833676  0.309102  4.707333
  S     0.084318  3.809202  4.725554
