16  
    
  C     2.327156  0.972514  3.518497
  C     2.066544  4.882652  3.214983
  C     1.027939  0.630469  2.997577
  C     0.874811  4.606063  2.469358
  N     3.272217  1.047879  2.571912
  N     3.115572  5.251424  2.446370
  N     1.028556  0.349908  1.695036
  N     1.083196  4.500644  1.164188
  N     0.652012  0.860630  5.401579
  N     0.020128  4.571264  4.877554
  S    -0.306068  0.693770  4.070679
  S    -0.547012  4.163959  3.322341
  S     2.549462  0.642391  1.160196
  S     2.655676  4.920026  0.874486
  S     2.226581  1.141799  5.265057
  S     1.627120  5.262286  4.844520
