16  
    
  C     1.923296  0.479051  3.079267
  C     1.895451  4.246154  3.302517
  C     0.587199  0.215123  2.601222
  C     0.612456  3.995894  2.631285
  N     2.862554  0.550763  2.128356
  N     2.836783  4.253282  2.415310
  N     0.498296  0.150805  1.252835
  N     0.600413  3.855454  1.345488
  N     0.248448  0.287528  5.126432
  N     0.129397  4.113002  5.140323
  S    -0.680203  0.153480  3.772207
  S    -0.689941  4.026856  3.747752
  S     2.081613  0.406580  0.638703
  S     2.221903  4.198575  0.828959
  S     1.875683  0.755218  4.819587
  S     1.800283  4.177520  5.030342
