16  
    
  C    -3.980798 -2.114163  1.694769
  C    -4.002418  1.575872  1.693301
  C    -5.288770 -2.296150  1.126420
  C    -5.297814  1.247573  1.034623
  N    -2.959503 -2.017621  0.873799
  N    -2.955467  1.476523  0.924604
  N    -5.221473 -2.464583 -0.195010
  N    -5.168283  1.121443 -0.284558
  N    -5.752713 -1.803617  3.579509
  N    -5.735744  1.594090  3.488712
  S    -6.659551 -2.284590  2.254584
  S    -6.579255  1.348247  2.091630
  S    -3.651136 -2.261135 -0.657096
  S    -3.590652  1.167064 -0.616435
  S    -4.078322 -1.731315  3.439148
  S    -4.056864  1.664029  3.418232
