16  
    
  C    -4.177128 -2.000011  1.864561
  C    -4.175500  1.392869  1.757933
  C    -5.536823 -2.236282  1.386492
  C    -5.381016  1.221269  1.067407
  N    -3.234565 -2.046372  0.934114
  N    -3.071094  1.310127  1.004028
  N    -5.596988 -2.483272  0.092229
  N    -5.241221  1.141176 -0.240673
  N    -5.674557 -2.253824  3.932163
  N    -6.069138  1.553391  3.534939
  S    -6.660109 -2.280251  2.630130
  S    -6.836225  1.260419  2.103509
  S    -4.032461 -2.429361 -0.432193
  S    -3.588927  1.152915 -0.529581
  S    -4.064443 -2.048269  3.626563
  S    -4.451764  1.533238  3.504226
