16  
    
  C     0.115849 -0.038082  2.734061
  C     0.112362  3.558590  2.685073
  C    -1.050256 -0.589879  2.109465
  C    -1.119039  3.062487  2.007945
  N     1.089305  0.193284  1.914230
  N     1.157287  3.807946  1.874451
  N    -1.007043 -0.694801  0.817224
  N    -0.848900  2.701397  0.734792
  N    -1.577909 -0.295128  4.563781
  N    -1.781931  3.268592  4.473366
  S    -2.276064 -0.922429  3.204956
  S    -2.341243  2.510314  3.110566
  S     0.525930 -0.168000  0.382440
  S     0.650068  3.302538  0.367181
  S    -0.068035  0.416142  4.388569
  S    -0.235554  3.973748  4.339461
