16  
    
  C    -0.511853 -0.489403  2.681666
  C    -0.310082  3.296526  2.645007
  C    -1.740882 -0.676221  1.955206
  C    -1.455464  2.616537  2.051710
  N     0.517781 -0.362033  1.809597
  N     0.738934  3.467034  1.853359
  N    -1.596957 -0.845944  0.626145
  N    -1.354213  2.428687  0.755459
  N    -2.365950 -0.601890  4.468322
  N    -2.172147  3.156667  4.429706
  S    -3.014945 -1.005551  2.999320
  S    -2.768164  2.362752  3.133061
  S    -0.056498 -0.549252  0.289698
  S     0.219486  2.758777  0.381030
  S    -0.752485 -0.056178  4.373627
  S    -0.674308  3.764763  4.341767
