16  
    
  C    -1.042430 -0.700036  2.276657
  C    -0.738956  3.050527  2.610007
  C    -2.252780 -1.388358  1.737844
  C    -1.956648  2.589696  1.994468
  N     0.004211 -0.646389  1.421314
  N     0.312048  3.069533  1.790352
  N    -2.175798 -1.638687  0.411032
  N    -1.795732  2.287901  0.736787
  N    -2.860895 -0.713937  4.157874
  N    -2.542725  2.985879  4.438915
  S    -3.588894 -1.413903  2.797756
  S    -3.323782  2.575984  3.043713
  S    -0.564962 -1.246759 -0.021742
  S    -0.264339  2.685114  0.305435
  S    -1.243710 -0.300832  3.951453
  S    -0.926332  3.279953  4.366723
