16  
    
  C    -4.718243 -2.553948  1.464434
  C    -4.553475  1.095770  1.555083
  C    -6.051546 -2.778390  0.867252
  C    -5.846122  0.871936  0.929678
  N    -3.728851 -2.358511  0.587844
  N    -3.490499  1.220788  0.762601
  N    -5.960012 -3.002545 -0.465806
  N    -5.790437  0.870830 -0.395548
  N    -6.445592 -2.703796  3.427532
  N    -6.375202  0.729162  3.338489
  S    -7.300616 -3.021111  2.032056
  S    -7.225652  0.593834  1.924976
  S    -4.353440 -2.672825 -0.918733
  S    -4.143395  0.972870 -0.747115
  S    -4.788151 -2.519325  3.273118
  S    -4.695797  0.924943  3.262228
