16  
    
  C    -5.841239 -3.052806  1.530936
  C    -6.148924  0.875255  1.383012
  C    -6.977492 -3.430910  0.778241
  C    -7.274699  0.149789  0.845921
  N    -4.690983 -3.016973  0.892402
  N    -5.223064  1.333041  0.518764
  N    -6.701854 -3.569017 -0.520737
  N    -7.320633  0.131432 -0.481234
  N    -7.673826 -3.287958  3.275801
  N    -7.565123  0.269231  3.355889
  S    -8.379196 -3.605313  1.823137
  S    -8.345977 -0.371909  2.030521
  S    -5.065196 -3.307487 -0.629127
  S    -5.911333  0.867883 -0.949021
  S    -6.041105 -2.903652  3.200605
  S    -6.080290  0.934076  3.158092
