16  
    
  C     1.909141  0.524401  3.145940
  C     1.924908  4.163596  3.167563
  C     0.571564  0.325591  2.592983
  C     0.606751  3.910152  2.598553
  N     2.868563  0.503704  2.218192
  N     2.932116  4.355069  2.289525
  N     0.565425  0.241515  1.226884
  N     0.666557  3.903630  1.283766
  N     0.380342  0.457354  5.114557
  N     0.136681  4.258545  5.188394
  S    -0.634333  0.125338  3.805234
  S    -0.767157  4.056073  3.715417
  S     2.102550  0.359285  0.760217
  S     2.178586  4.088882  0.838364
  S     1.948797  0.789623  4.867005
  S     1.809871  4.213718  4.941253
