16  
    
  C    -5.554705 -2.802135  1.581810
  C    -5.464112  0.970852  1.398492
  C    -6.761660 -3.020603  0.858895
  C    -6.658671  0.418578  0.742706
  N    -4.479799 -2.598865  0.837065
  N    -4.436302  1.212117  0.593164
  N    -6.618656 -3.236781 -0.444818
  N    -6.605416  0.213614 -0.538773
  N    -7.334202 -3.267037  3.309243
  N    -7.239302  0.524252  3.254488
  S    -8.106435 -3.267413  1.855979
  S    -8.014040  0.176162  1.829901
  S    -4.997782 -2.955771 -0.701613
  S    -5.075456  0.789550 -0.943699
  S    -5.854196 -2.547389  3.268753
  S    -5.709425  1.144477  3.060361
