16  
    
  C    -5.324617 -2.666384  1.364326
  C    -5.431891  1.037426  1.271800
  C    -6.482607 -3.321395  0.807782
  C    -6.579982  0.475866  0.574021
  N    -4.401189 -2.458302  0.432880
  N    -4.388167  1.447248  0.537406
  N    -6.485697 -3.442919 -0.507394
  N    -6.445846  0.425136 -0.736688
  N    -6.932500 -3.023128  3.364828
  N    -7.266750  0.498460  3.118869
  S    -7.717362 -3.527745  1.945938
  S    -7.915612  0.135769  1.648976
  S    -5.069431 -2.823719 -1.003044
  S    -4.944490  1.147287 -1.028095
  S    -5.333302 -2.596532  3.112290
  S    -5.722609  1.148676  2.973809
