16  
    
  C    -1.870723 -1.007182  2.099548
  C    -1.806953  2.289751  1.985379
  C    -3.181998 -1.240784  1.531498
  C    -3.012029  2.008318  1.267358
  N    -0.866129 -0.923502  1.277942
  N    -0.711234  2.443083  1.217692
  N    -3.114435 -1.515242  0.266727
  N    -2.802899  1.831551 -0.045883
  N    -3.518027 -0.997474  4.058157
  N    -3.661534  1.972779  3.800628
  S    -4.465619 -1.197075  2.687571
  S    -4.395844  1.913261  2.299483
  S    -1.539280 -1.300728 -0.190580
  S    -1.170879  2.100321 -0.309030
  S    -1.854148 -0.940956  3.878792
  S    -2.022935  2.402606  3.737796
