16  
    
  C     1.135455  0.145218  2.942256
  C     0.836899  3.816351  3.079771
  C    -0.167962 -0.398441  2.481705
  C    -0.389318  3.393221  2.513836
  N     2.017851  0.285416  1.984391
  N     1.815216  3.815363  2.214156
  N    -0.139377 -0.784147  1.204188
  N    -0.403427  3.236437  1.211528
  N    -0.339766  0.002512  4.931201
  N    -0.834916  3.379856  5.062410
  S    -1.373876 -0.559501  3.716561
  S    -1.729939  3.233604  3.627094
  S     1.356341 -0.329657  0.611914
  S     1.152009  3.617570  0.717114
  S     1.206556  0.493313  4.634507
  S     0.764268  3.825690  4.854022
