16  
    
  C    -1.765412 -1.025014  2.521695
  C    -1.877572  2.405397  2.484919
  C    -2.986904 -1.523154  1.821568
  C    -3.163946  2.244561  1.857453
  N    -0.725424 -0.980438  1.713354
  N    -0.806800  2.579255  1.702756
  N    -2.926624 -1.515043  0.507452
  N    -3.038049  2.166598  0.537148
  N    -3.572994 -1.324907  4.339890
  N    -3.651699  2.217942  4.351420
  S    -4.292443 -1.741730  2.928216
  S    -4.488606  1.968013  2.903832
  S    -1.315114 -1.282141  0.147607
  S    -1.393343  2.442417  0.154563
  S    -1.997494 -0.891585  4.278545
  S    -2.011796  2.497357  4.248049
