16  
    
  C    -1.542375 -0.972590  2.198814
  C    -1.796735  2.511685  2.027548
  C    -2.796874 -1.320542  1.670736
  C    -3.064969  2.076883  1.474252
  N    -0.482190 -1.036364  1.359476
  N    -0.783226  2.612990  1.188838
  N    -2.733959 -1.586082  0.367477
  N    -2.951140  1.838234  0.191985
  N    -3.185065 -0.976597  4.193947
  N    -3.440537  2.110280  4.019975
  S    -4.095256 -1.211269  2.822012
  S    -4.345444  1.867783  2.652569
  S    -1.146194 -1.448628 -0.066956
  S    -1.392274  2.139069 -0.273256
  S    -1.561112 -0.954813  3.934893
  S    -1.872768  2.583724  3.792179
