16  
    
  C    -1.539301 -1.118373  2.701880
  C    -1.568035  2.655943  2.400589
  C    -2.580207 -1.646803  1.850729
  C    -2.734012  2.276536  1.686384
  N    -0.417791 -0.922555  2.011906
  N    -0.508842  2.789898  1.640632
  N    -2.317825 -1.613538  0.519533
  N    -2.538636  1.901947  0.439345
  N    -3.441953 -1.539203  4.289762
  N    -3.528057  2.485045  4.104115
  S    -4.008578 -1.932051  2.805084
  S    -4.205747  2.007228  2.657093
  S    -0.725096 -1.193732  0.436362
  S    -0.931866  2.215042  0.104917
  S    -1.822515 -1.169935  4.406533
  S    -1.915293  2.902024  4.069504
