16  
    
  C     1.817630  0.564078  3.071328
  C     1.958285  4.398797  3.400417
  C     0.540236  0.218884  2.432070
  C     0.729960  3.977391  2.749527
  N     2.797310  0.792908  2.219137
  N     2.998053  4.487198  2.555379
  N     0.570079  0.178709  1.126510
  N     0.737197  4.151991  1.425897
  N     0.008572  0.247180  4.915026
  N     0.195362  3.984127  5.271767
  S    -0.714197 -0.104564  3.555574
  S    -0.553959  3.700578  3.768996
  S     2.185241  0.539435  0.678753
  S     2.346968  4.515168  0.984699
  S     1.643150  0.462749  4.809567
  S     1.817918  4.307653  5.102392
