16  
    
  C    -5.305298 -2.268458  1.695381
  C    -5.360888  1.299411  1.420548
  C    -6.539121 -2.643429  1.066422
  C    -6.579178  0.902423  0.861762
  N    -4.268594 -2.242056  0.901395
  N    -4.340608  1.200145  0.595861
  N    -6.448693 -2.951016 -0.213161
  N    -6.490288  0.701088 -0.445369
  N    -6.996113 -2.488187  3.621794
  N    -7.102616  1.092460  3.366488
  S    -7.795021 -2.754204  2.180356
  S    -7.920121  0.782021  1.967535
  S    -4.883712 -2.602777 -0.629428
  S    -4.929592  0.739143 -0.837652
  S    -5.463655 -1.938271  3.411055
  S    -5.479105  1.319077  3.136162
