16  
    
  C     0.878502  0.308713  2.824873
  C     0.573586  3.496620  2.695456
  C    -0.325677 -0.120859  2.249548
  C    -0.709661  3.415341  2.081899
  N     1.854568  0.608412  2.018322
  N     1.586394  3.667404  1.883047
  N    -0.229420 -0.257322  0.934197
  N    -0.680055  3.304855  0.746735
  N    -0.813046 -0.016361  4.785751
  N    -1.084225  3.258660  4.634275
  S    -1.569601 -0.522430  3.403379
  S    -1.895319  2.933929  3.192489
  S     1.267178  0.219931  0.480161
  S     0.894708  3.654450  0.365673
  S     0.703251  0.503165  4.533141
  S     0.506143  3.543451  4.522010
