16  
    
  C     2.797622  1.405305  3.672760
  C     2.943159  5.226347  3.651822
  C     1.562097  1.050716  3.040468
  C     1.703583  5.134854  2.923566
  N     3.824119  1.520676  2.798163
  N     4.016680  5.322149  2.869244
  N     1.639668  0.943661  1.730101
  N     1.843467  4.781702  1.648668
  N     0.980031  0.785654  5.519086
  N     1.113601  4.778256  5.356705
  S     0.230898  0.715617  4.067279
  S     0.361247  4.912658  3.904134
  S     3.210194  1.206386  1.312796
  S     3.416254  5.073844  1.330647
  S     2.506189  1.406788  5.430288
  S     2.738385  5.283192  5.362306
