16  
    
  C    -2.161460 -1.136933  2.164902
  C    -2.711361  2.578860  2.315002
  C    -3.318798 -1.755705  1.515941
  C    -3.784889  1.839138  1.718837
  N    -1.314294 -0.637178  1.218941
  N    -1.771511  2.889272  1.415662
  N    -3.211089 -1.989290  0.189294
  N    -3.739343  1.714843  0.381597
  N    -4.046908 -1.567334  3.968923
  N    -4.396358  2.198501  4.231430
  S    -4.574974 -2.354025  2.583621
  S    -5.079117  1.550934  2.810256
  S    -1.878613 -1.184010 -0.288493
  S    -2.291091  2.400902 -0.039705
  S    -2.482932 -1.000569  3.867614
  S    -2.875626  2.869333  4.021477
