16  
    
  C     2.059533  0.593396  3.232439
  C     2.040441  4.361284  3.068440
  C     0.763866  0.270288  2.670966
  C     0.792985  3.928868  2.464777
  N     3.024896  0.714694  2.301021
  N     3.038538  4.297213  2.200834
  N     0.778763  0.024925  1.348742
  N     0.773559  3.888072  1.145248
  N     0.418664  0.715901  5.182604
  N     0.308891  4.251211  4.972627
  S    -0.502978  0.577961  3.772276
  S    -0.579866  3.966298  3.586792
  S     2.257904  0.351249  0.879543
  S     2.332368  3.906437  0.724152
  S     2.051066  0.855877  4.932594
  S     1.825410  4.742655  4.739336
