16  
    
  C     2.522558  1.082024  3.319056
  C     3.001422  5.397071  3.935346
  C     1.341258  0.613831  2.636578
  C     1.747864  4.979508  3.369880
  N     3.602231  1.177389  2.519892
  N     3.969135  5.534804  2.988165
  N     1.488365  0.429990  1.329832
  N     1.874591  4.472286  2.144706
  N     0.442692  1.131886  4.999716
  N     1.146342  5.601639  5.709444
  S    -0.153292  0.439823  3.565849
  S     0.410416  4.835205  4.457950
  S     3.060799  0.747204  0.963412
  S     3.408773  4.765153  1.632108
  S     2.137865  1.367088  5.043193
  S     2.753464  5.827021  5.639916
