16  
    
  C    -4.817773 -2.485383  1.896595
  C    -5.212275  1.197456  1.810462
  C    -5.972003 -3.083464  1.262824
  C    -6.381725  0.577666  1.155520
  N    -3.806203 -2.250385  1.052471
  N    -4.185500  1.318880  1.009235
  N    -5.872846 -3.145929 -0.062178
  N    -6.243444  0.193120 -0.104522
  N    -6.697985 -2.801442  3.787294
  N    -7.043372  1.018453  3.652152
  S    -7.386690 -3.256977  2.329231
  S    -7.719362  0.406277  2.177885
  S    -4.332269 -2.672358 -0.462012
  S    -4.665270  0.725466 -0.494773
  S    -5.096784 -2.295302  3.587853
  S    -5.351182  1.360008  3.527943
