16  
    
  C    -0.247438 -0.604911  2.628839
  C    -0.387357  3.176266  2.670327
  C    -1.533427 -1.104649  2.107840
  C    -1.596172  2.763587  2.041393
  N     0.794581 -0.767584  1.786916
  N     0.667478  3.367770  1.863364
  N    -1.474215 -1.334827  0.805080
  N    -1.386091  2.420640  0.772215
  N    -1.929540 -0.636964  4.616875
  N    -2.056567  2.898627  4.600222
  S    -2.775205 -1.257061  3.370780
  S    -2.863359  2.440661  3.182584
  S     0.115483 -1.246908  0.384019
  S     0.151076  2.961903  0.354778
  S    -0.313961 -0.311663  4.306254
  S    -0.550254  3.544807  4.364659
