16  
    
  C    -1.256569 -0.844647  2.125501
  C    -1.487141  3.006469  2.060357
  C    -2.470952 -1.352116  1.526008
  C    -2.596151  2.353817  1.329869
  N    -0.255903 -0.689016  1.314660
  N    -0.594574  3.453412  1.169327
  N    -2.424531 -1.450252  0.230041
  N    -2.393207  2.120153  0.016932
  N    -3.139809 -1.038101  4.013611
  N    -3.262681  2.616213  3.798135
  S    -3.845133 -1.652432  2.600726
  S    -3.882834  1.900302  2.439796
  S    -0.866922 -0.986210 -0.233099
  S    -0.942768  2.863187 -0.329579
  S    -1.463888 -0.781301  3.847562
  S    -1.822924  3.418717  3.701461
