16  
    
  C     0.614385 -0.118586  2.776926
  C     0.314375  3.503473  2.872077
  C    -0.631651 -0.552964  2.183578
  C    -0.935600  3.273978  2.179474
  N     1.600302  0.054817  1.913308
  N     1.324526  3.980525  2.132783
  N    -0.574989 -0.554141  0.854550
  N    -0.739148  3.266800  0.836332
  N    -1.063329 -0.479672  4.757278
  N    -1.470678  3.099080  4.714589
  S    -1.985693 -0.659906  3.378304
  S    -2.217319  2.818723  3.224223
  S     0.957793 -0.140616  0.361587
  S     0.813191  3.703449  0.579278
  S     0.497721 -0.028408  4.522471
  S     0.143870  3.451308  4.635983
