16  
    
  C    -5.761447 -2.994560  1.509877
  C    -6.113122  0.942385  1.381738
  C    -6.918254 -3.455105  0.807001
  C    -7.300956  0.312640  0.895185
  N    -4.666245 -2.962630  0.737938
  N    -5.217492  1.343692  0.474471
  N    -6.748396 -3.577590 -0.498447
  N    -7.194985  0.118377 -0.414237
  N    -7.537452 -3.544024  3.340669
  N    -7.515837  0.177288  3.526019
  S    -8.326460 -3.769970  1.845092
  S    -8.325432 -0.397398  2.137811
  S    -5.135275 -3.317615 -0.830395
  S    -5.814616  0.805966 -0.956700
  S    -6.056497 -2.773667  3.260931
  S    -6.073582  0.968348  3.175395
