16  
    
  C     0.137601 -0.098756  2.714901
  C     0.068046  3.622912  2.637486
  C    -1.117536 -0.538276  2.106192
  C    -1.011802  2.942720  2.070029
  N     1.090732  0.208324  1.805113
  N     1.088507  3.822104  1.816112
  N    -1.070085 -0.699937  0.770826
  N    -0.957683  2.791344  0.756999
  N    -1.594338 -0.329518  4.600022
  N    -1.763932  3.372460  4.456972
  S    -2.366054 -0.924757  3.235406
  S    -2.365911  2.529261  3.083512
  S     0.407802 -0.166976  0.347692
  S     0.611697  3.208204  0.324437
  S    -0.131811  0.422770  4.357444
  S    -0.288190  4.013886  4.281511
