16  
    
  C     0.345742  0.117382  2.778064
  C     0.181801  3.707525  2.794964
  C    -0.774873 -0.558153  2.158362
  C    -0.871645  3.054669  2.143839
  N     1.363269  0.313034  1.920788
  N     1.264507  3.964465  2.049543
  N    -0.680881 -0.756119  0.841876
  N    -0.708596  2.949503  0.854030
  N    -1.259568 -0.463268  4.647063
  N    -1.535723  3.015626  4.586775
  S    -2.089813 -0.732968  3.203639
  S    -2.299889  2.731392  3.097056
  S     0.829695 -0.255501  0.489465
  S     0.781712  3.561954  0.483873
  S     0.314533  0.079329  4.516575
  S    -0.030067  3.588620  4.561756
