16  
    
  C     2.303087  0.843441  3.536237
  C     1.948429  5.116872  3.133765
  C     1.003892  0.573693  2.959299
  C     0.857308  4.513298  2.391943
  N     3.322265  0.890172  2.673164
  N     3.133660  5.215664  2.485540
  N     0.992991  0.436837  1.626017
  N     1.086507  4.443487  1.083494
  N     0.592180  0.945505  5.511167
  N     0.035863  4.740883  4.817103
  S    -0.251568  0.641846  4.108665
  S    -0.532011  4.143831  3.397081
  S     2.612978  0.660915  1.155700
  S     2.669554  4.904056  0.901418
  S     2.254333  1.148184  5.219541
  S     1.538293  5.268789  4.813084
