16  
    
  C    -4.190584 -2.311322  1.605180
  C    -4.322006  1.724526  1.925681
  C    -5.411871 -2.801486  1.044267
  C    -5.472246  1.100734  1.246264
  N    -3.144895 -2.323730  0.749858
  N    -3.215454  1.723312  1.196606
  N    -5.343974 -3.103789 -0.225665
  N    -5.168920  0.693323  0.032329
  N    -5.967273 -2.258228  3.496109
  N    -6.088722  1.500353  3.661933
  S    -6.782183 -2.733055  2.147501
  S    -6.838753  0.989017  2.268202
  S    -3.815974 -2.802806 -0.713037
  S    -3.625764  0.993345 -0.251686
  S    -4.312001 -1.917263  3.313274
  S    -4.517327  2.125077  3.638366
