16  
    
  C     2.755751  1.119596  3.561912
  C     2.944721  4.877656  3.674854
  C     1.577498  0.719264  2.832118
  C     1.636240  4.917870  3.065054
  N     3.725868  1.563316  2.742496
  N     3.941183  4.869015  2.793983
  N     1.728360  0.786408  1.515748
  N     1.633575  4.869861  1.738004
  N     0.759186  0.838786  5.239903
  N     1.277994  5.490803  5.465731
  S     0.098692  0.437166  3.750950
  S     0.312713  5.239034  4.158393
  S     3.258759  1.376374  1.238266
  S     3.210713  4.851825  1.317803
  S     2.415721  1.052728  5.260934
  S     2.914644  5.326607  5.344351
