16  
    
  C    -2.128344 -1.215779  2.001770
  C    -2.661213  2.625598  2.174503
  C    -3.276349 -1.840875  1.398413
  C    -3.812149  1.896542  1.637088
  N    -1.302070 -0.593668  1.190123
  N    -1.656287  2.796563  1.305392
  N    -3.088963 -2.027777  0.101123
  N    -3.672759  1.668817  0.312059
  N    -3.670293 -1.802196  3.975398
  N    -4.395033  2.390129  4.135669
  S    -4.459494 -2.322205  2.594300
  S    -5.164056  1.787649  2.749547
  S    -1.699438 -1.196413 -0.309095
  S    -2.220010  2.310361 -0.155156
  S    -2.214812 -0.918515  3.728152
  S    -2.796060  2.848975  3.857791
