16  
    
  C     2.592370  1.014784  3.100652
  C     2.443695  4.928552  3.503575
  C     1.377572  0.526555  2.470194
  C     1.232849  4.550233  2.782074
  N     3.647471  1.288024  2.356859
  N     3.554154  5.088452  2.794851
  N     1.540680  0.443563  1.139379
  N     1.503633  4.298757  1.509949
  N     0.873691  0.629364  5.034670
  N     0.722120  4.485135  5.250907
  S    -0.040366  0.437779  3.550594
  S    -0.054760  3.981289  3.921628
  S     3.120143  0.946354  0.755555
  S     3.130218  4.668217  1.205478
  S     2.473858  1.137621  4.812497
  S     2.266434  5.103902  5.222100
