16  
    
  C    -4.179764 -2.310533  1.660173
  C    -4.291410  1.758734  1.898616
  C    -5.482349 -2.612632  1.027247
  C    -5.405107  1.116880  1.296049
  N    -3.216783 -2.269915  0.779656
  N    -3.195152  1.699157  1.178313
  N    -5.361218 -2.987635 -0.270744
  N    -5.284472  0.696134  0.057003
  N    -5.980301 -2.082972  3.569839
  N    -6.056960  1.465295  3.747018
  S    -6.788005 -2.714245  2.193708
  S    -6.825190  0.987387  2.274488
  S    -3.751171 -2.791784 -0.716825
  S    -3.613797  0.968122 -0.259895
  S    -4.307995 -1.838828  3.367981
  S    -4.508466  2.160396  3.539277
