16  
    
  C     3.274365  1.517014  3.584359
  C     3.044729  5.140377  3.395594
  C     2.018479  1.082024  3.038071
  C     2.025164  4.358373  2.756459
  N     4.248194  1.558749  2.674481
  N     4.061572  5.478030  2.625338
  N     2.117712  0.836189  1.723567
  N     2.153517  4.349114  1.395980
  N     1.659865  1.461370  5.561324
  N     1.158034  5.073870  5.082884
  S     0.754285  0.963491  4.270714
  S     0.597335  4.140060  3.819221
  S     3.692921  1.149867  1.258051
  S     3.718603  4.996620  1.047980
  S     3.174709  1.989387  5.249825
  S     2.779031  5.382927  5.136065
