16  
    
  C     3.261114  1.515575  3.738025
  C     3.273178  4.958185  3.487262
  C     2.005660  1.313333  3.046575
  C     2.031843  4.686568  2.797502
  N     4.326798  1.542381  2.923155
  N     4.298518  5.025171  2.609207
  N     2.038198  1.167788  1.707425
  N     2.109044  4.499590  1.479335
  N     1.444524  1.322603  5.577743
  N     1.320992  5.162948  5.279090
  S     0.602388  1.236253  4.162330
  S     0.634702  4.732725  3.863188
  S     3.643654  1.342974  1.326300
  S     3.666788  4.789487  1.099685
  S     3.041602  1.750098  5.417902
  S     2.947449  5.214530  5.197181
