16  
    
  C    -1.438640 -1.103178  2.628058
  C    -1.530916  2.615225  2.353870
  C    -2.544008 -1.623429  1.846380
  C    -2.711183  2.190777  1.586783
  N    -0.275984 -0.936918  1.925524
  N    -0.427219  2.722108  1.638350
  N    -2.270568 -1.542694  0.518629
  N    -2.390406  1.871598  0.344549
  N    -3.369479 -1.735471  4.201630
  N    -3.453053  2.462208  4.028341
  S    -3.957655 -1.960403  2.681896
  S    -4.044074  1.801766  2.624704
  S    -0.694270 -1.195433  0.361239
  S    -0.801305  2.278715  0.076800
  S    -1.887283 -0.974270  4.301078
  S    -1.884151  3.042370  4.017074
