16  
    
  C     2.002869  0.648620  3.173732
  C     1.871372  4.349455  3.088982
  C     0.692749  0.406627  2.638878
  C     0.637666  4.007430  2.460157
  N     2.976561  0.618965  2.269404
  N     2.910855  4.146369  2.256774
  N     0.701609  0.199020  1.324977
  N     0.680959  3.835100  1.101535
  N     0.404041  0.681402  5.172221
  N     0.222011  4.282780  5.119251
  S    -0.586625  0.289260  3.919265
  S    -0.698978  3.995535  3.658728
  S     2.249348  0.301302  0.810207
  S     2.256258  3.996661  0.774291
  S     2.012419  0.781694  4.952142
  S     1.874784  4.518630  4.834593
