16  
    
  C     2.524524  1.080009  3.252364
  C     3.005992  5.384620  3.861495
  C     1.364761  0.526026  2.633627
  C     1.714192  4.921663  3.356022
  N     3.529480  1.283768  2.367640
  N     4.031914  5.148796  2.998412
  N     1.521361  0.278530  1.340284
  N     1.739999  4.677220  2.018593
  N     0.640063  0.823362  5.041976
  N     1.231807  5.716859  5.810655
  S    -0.116639  0.344854  3.630661
  S     0.350016  5.280378  4.419968
  S     3.063243  0.763467  0.925723
  S     3.314246  4.800004  1.561896
  S     2.182976  1.338456  4.956990
  S     2.907917  5.871495  5.556153
