16  
    
  C    -4.246268 -1.999656  2.040840
  C    -4.142475  1.433138  1.906267
  C    -5.527620 -2.309049  1.492218
  C    -5.455741  1.118728  1.271897
  N    -3.212201 -1.961895  1.199347
  N    -3.121264  1.390500  1.063842
  N    -5.500676 -2.412636  0.191931
  N    -5.382997  1.010433 -0.042830
  N    -5.971640 -1.963811  3.955737
  N    -5.917495  1.373024  3.822904
  S    -6.833362 -2.493246  2.621543
  S    -6.737673  1.065617  2.435204
  S    -3.889746 -2.215472 -0.302772
  S    -3.698607  1.174448 -0.471814
  S    -4.327022 -1.749824  3.792639
  S    -4.305017  1.702457  3.694963
