16  
    
  C     2.536410  1.123590  3.266124
  C     3.010151  5.321727  3.846521
  C     1.367380  0.523445  2.619635
  C     1.708501  5.115927  3.276616
  N     3.593320  1.316417  2.486008
  N     3.977402  5.131425  2.953433
  N     1.503768  0.301933  1.328102
  N     1.693709  4.617134  2.049601
  N     0.624205  0.706203  5.065179
  N     1.259751  5.628958  5.793063
  S    -0.012653  0.333880  3.597257
  S     0.402438  5.354346  4.414880
  S     3.030511  0.777705  0.932651
  S     3.279035  4.745814  1.488071
  S     2.193819  1.341761  4.967512
  S     2.893763  5.822230  5.581340
