16  
    
  C    -2.252709 -1.079911  2.061775
  C    -2.631840  2.495607  2.240158
  C    -3.241953 -1.935765  1.453222
  C    -3.801320  1.847941  1.671063
  N    -1.322299 -0.672528  1.180898
  N    -1.690877  2.873063  1.364230
  N    -3.139539 -2.024212  0.100457
  N    -3.691911  1.652381  0.376326
  N    -3.804762 -1.668405  3.991685
  N    -4.376596  2.297183  4.121182
  S    -4.470946 -2.349424  2.599959
  S    -5.160703  1.709868  2.776001
  S    -1.760064 -1.147187 -0.321885
  S    -2.269855  2.363013 -0.114233
  S    -2.320585 -0.985934  3.789705
  S    -2.837382  2.875806  3.935981
