16  
    
  C    -5.041017 -2.563951  1.954775
  C    -5.394290  1.171687  1.682904
  C    -6.227530 -2.991923  1.308957
  C    -6.631018  0.922237  1.066673
  N    -3.965276 -2.674531  1.170104
  N    -4.350401  1.085463  0.856782
  N    -6.083334 -3.333188  0.018818
  N    -6.583791  0.758099 -0.270317
  N    -6.761847 -2.747716  3.774254
  N    -7.226097  1.005792  3.581065
  S    -7.611665 -2.791936  2.333071
  S    -8.014244  0.700486  2.117138
  S    -4.512882 -3.046018 -0.321291
  S    -4.955722  0.740418 -0.646658
  S    -5.164590 -2.132192  3.635952
  S    -5.562452  1.274886  3.363203
