16  
    
  C    -3.954594 -1.902415  1.776712
  C    -3.705487  1.876456  1.860145
  C    -5.138105 -2.354498  1.097918
  C    -4.874454  1.358684  1.201984
  N    -2.966997 -1.699713  0.943137
  N    -2.719925  2.106825  1.030601
  N    -5.043448 -2.550765 -0.231516
  N    -4.909144  1.370668 -0.126348
  N    -5.793800 -1.935282  3.461820
  N    -5.353604  1.483094  3.678289
  S    -6.439165 -2.768045  2.158796
  S    -6.181268  1.139415  2.293023
  S    -3.474888 -2.089584 -0.587745
  S    -3.341350  1.850180 -0.512664
  S    -4.174873 -1.646581  3.447186
  S    -3.747426  1.892912  3.563201
