16  
    
  C    -2.926816 -1.858952  2.010641
  C    -3.412273  1.590176  2.047432
  C    -4.201063 -2.205421  1.495250
  C    -4.659740  1.235546  1.477977
  N    -1.982760 -1.713241  1.080504
  N    -2.374143  1.528955  1.202516
  N    -4.226659 -2.387731  0.191275
  N    -4.566184  1.054896  0.158703
  N    -4.616561 -2.025001  3.985509
  N    -5.152469  1.620565  4.005903
  S    -5.484225 -2.221849  2.605522
  S    -5.962845  1.174976  2.633953
  S    -2.704876 -2.033511 -0.348634
  S    -2.956230  1.241010 -0.296713
  S    -3.034666 -1.570453  3.691893
  S    -3.524153  1.740302  3.867386
