16  
    
  C    -2.051630 -0.998772  1.997297
  C    -2.621776  2.662557  2.076169
  C    -3.170630 -1.703139  1.457372
  C    -3.837051  2.083199  1.488193
  N    -1.050567 -0.774501  1.108079
  N    -1.640445  2.772280  1.176759
  N    -3.049334 -1.942209  0.143139
  N    -3.750670  1.825044  0.193458
  N    -3.532373 -1.882628  3.980249
  N    -4.312686  2.490301  4.007025
  S    -4.369013 -2.179082  2.571755
  S    -5.098188  1.883553  2.658533
  S    -1.629703 -1.282119 -0.381228
  S    -2.166392  2.154898 -0.217993
  S    -2.220579 -0.899520  3.770097
  S    -2.717575  2.865325  3.827814
