16  
    
  C     2.053600  0.822228  3.080678
  C     2.182855  4.584537  3.056142
  C     0.782468  0.683497  2.426172
  C     1.062713  3.956470  2.316863
  N     3.108656  0.566959  2.275137
  N     3.240634  4.562511  2.258966
  N     0.850805  0.429532  1.106581
  N     1.262900  3.582316  1.044692
  N     0.212978  1.034158  4.941037
  N     0.268347  4.392175  4.704335
  S    -0.548706  0.573988  3.526857
  S    -0.428558  3.977095  3.301158
  S     2.455642  0.228401  0.799276
  S     2.768582  4.044917  0.761546
  S     1.957465  1.226949  4.764011
  S     1.882955  4.829596  4.790381
