16  
    
  C    -4.289512 -1.832442  1.971800
  C    -4.166763  1.588124  1.885845
  C    -5.580700 -2.206354  1.357666
  C    -5.380566  1.098664  1.382091
  N    -3.257859 -1.705454  1.133905
  N    -3.129888  1.514621  1.020706
  N    -5.397523 -2.620520  0.081727
  N    -5.412713  0.877929  0.058462
  N    -6.016742 -2.118884  3.923703
  N    -5.825531  1.471251  3.856233
  S    -6.809992 -2.385536  2.480661
  S    -6.681082  0.969993  2.504170
  S    -3.780325 -2.326101 -0.294077
  S    -3.799780  1.085427 -0.372798
  S    -4.416907 -1.601784  3.729627
  S    -4.201241  1.805934  3.566327
