16  
    
  C     0.842921  0.094550  2.821510
  C     0.421284  3.720530  2.982417
  C    -0.407443 -0.332184  2.202388
  C    -0.834986  3.583715  2.379494
  N     1.860912  0.151923  1.940706
  N     1.441389  3.819254  2.117945
  N    -0.434258 -0.408112  0.859899
  N    -0.882668  3.687300  1.062301
  N    -0.789365 -0.172945  4.788170
  N    -1.177439  3.065743  4.878198
  S    -1.720176 -0.343777  3.407093
  S    -2.109505  3.230628  3.549333
  S     1.166679 -0.094162  0.465997
  S     0.785438  3.951001  0.608619
  S     0.851444  0.072852  4.593304
  S     0.490155  3.325553  4.655384
