16  
    
  C    -0.133184 -0.383912  2.548334
  C     0.096946  3.545603  2.406652
  C    -1.426936 -0.689674  1.997934
  C    -1.243415  3.316413  1.801926
  N     0.826460 -0.223312  1.660710
  N     1.058335  3.708472  1.481941
  N    -1.483789 -0.683679  0.661252
  N    -1.155744  3.028668  0.483223
  N    -1.752591 -0.353808  4.562663
  N    -1.666003  3.513370  4.286244
  S    -2.694378 -0.674294  3.207344
  S    -2.525577  3.039763  2.933377
  S     0.066545 -0.353681  0.209119
  S     0.423741  3.364457  0.006128
  S    -0.128758 -0.096646  4.312554
  S    -0.082857  3.892883  4.039919
