16  
    
  C     2.495278  1.114058  3.302368
  C     2.989314  5.287789  3.846677
  C     1.378920  0.569441  2.586813
  C     1.671604  5.185249  3.244727
  N     3.570514  1.318238  2.553080
  N     3.973465  5.178060  2.946730
  N     1.508943  0.339572  1.282937
  N     1.652494  4.649609  2.012037
  N     0.684454  0.676958  5.092476
  N     1.292463  5.548779  5.756166
  S     0.044915  0.298601  3.576250
  S     0.434794  5.402442  4.401362
  S     3.045062  0.826902  0.967429
  S     3.231981  4.676618  1.468093
  S     2.215471  1.336150  4.995818
  S     2.911129  5.753583  5.550346
