16  
    
  C    -1.676975 -1.107471  2.073003
  C    -1.742665  2.430880  1.950809
  C    -2.974746 -1.238185  1.542971
  C    -2.989547  1.970699  1.285726
  N    -0.670168 -0.987603  1.149495
  N    -0.655944  2.481014  1.161105
  N    -2.962119 -1.563608  0.227085
  N    -2.790872  1.825379 -0.017711
  N    -3.422717 -1.028307  4.087989
  N    -3.583836  2.057670  3.751482
  S    -4.254836 -1.180083  2.651071
  S    -4.366581  1.947719  2.308299
  S    -1.394049 -1.393537 -0.262453
  S    -1.226587  2.151973 -0.371733
  S    -1.770047 -0.955614  3.846613
  S    -1.934612  2.362066  3.684795
