16  
    
  C     1.384058  0.422142  3.059099
  C     0.960475  3.953089  2.651190
  C     0.200722  0.142455  2.311406
  C    -0.154691  3.477910  1.847999
  N     2.475117  0.305720  2.322258
  N     1.955841  4.336999  1.831132
  N     0.403502 -0.090896  0.996631
  N     0.171096  3.213995  0.570539
  N    -0.623324  0.620315  4.699038
  N    -0.971496  3.712815  4.272398
  S    -1.327062  0.331093  3.247929
  S    -1.576229  3.248075  2.779986
  S     2.057919 -0.047403  0.758021
  S     1.667979  3.812798  0.308487
  S     1.014048  0.887706  4.761912
  S     0.621238  4.253845  4.302068
