16  
    
  C     3.547739  1.713081  3.601765
  C     3.144929  5.239255  3.434159
  C     2.249958  1.251764  3.095073
  C     1.932410  4.706433  2.799465
  N     4.506008  1.937337  2.724332
  N     4.144025  5.459863  2.614472
  N     2.238221  1.177626  1.767879
  N     2.078927  4.428787  1.509755
  N     2.008624  1.428121  5.625081
  N     1.274478  5.031505  5.228897
  S     1.038301  0.945088  4.368648
  S     0.631580  4.301001  3.840271
  S     3.736251  1.586912  1.193322
  S     3.511558  5.025008  1.083662
  S     3.614799  1.772811  5.301675
  S     2.884487  5.490116  5.141597
