16  
    
  C    -5.698573 -2.697956  1.543107
  C    -5.523539  0.933570  1.441878
  C    -6.843831 -3.224978  0.818531
  C    -6.699906  0.426086  0.772523
  N    -4.576473 -2.558831  0.853070
  N    -4.567310  1.125882  0.547687
  N    -6.591987 -3.302415 -0.496487
  N    -6.567679  0.242581 -0.510965
  N    -7.523636 -2.995186  3.319930
  N    -7.299728  0.775777  3.290948
  S    -8.327510 -3.226580  1.831643
  S    -8.027643  0.168287  1.878164
  S    -5.016599 -2.815415 -0.752705
  S    -5.050133  0.688823 -0.938005
  S    -5.841878 -2.597709  3.268313
  S    -5.680095  1.055191  3.164881
