16  
    
  C     1.798811  0.599356  3.015004
  C     1.937459  4.283471  3.355929
  C     0.542007  0.241930  2.431797
  C     0.704779  4.160236  2.663776
  N     2.801665  0.835822  2.164230
  N     2.969877  4.366383  2.548370
  N     0.610109  0.123490  1.090739
  N     0.728387  4.124868  1.347370
  N     0.088349  0.341113  5.018387
  N     0.146731  3.952534  5.241300
  S    -0.776411 -0.053446  3.580873
  S    -0.577373  3.714916  3.802287
  S     2.126064  0.486123  0.666663
  S     2.314329  4.455060  1.008242
  S     1.715469  0.435838  4.765866
  S     1.810878  4.287309  5.131120
