16  
    
  C     0.946184  0.322305  2.839174
  C     0.556905  3.631273  2.725947
  C    -0.253272 -0.148122  2.193478
  C    -0.623642  3.129677  2.114243
  N     1.943005  0.595207  2.031741
  N     1.634015  3.732586  1.937513
  N    -0.187595 -0.170554  0.869082
  N    -0.541456  3.309396  0.796337
  N    -0.813839 -0.127411  4.738814
  N    -1.241373  3.287070  4.625716
  S    -1.560193 -0.562241  3.331843
  S    -2.017776  2.821191  3.172031
  S     1.405780  0.343723  0.478641
  S     1.015250  3.593789  0.415765
  S     0.781440  0.381730  4.669604
  S     0.367573  3.608541  4.451896
