16  
    
  C    -1.292231 -0.780437  1.893926
  C    -1.438996  3.430011  2.020628
  C    -2.588143 -1.209157  1.487330
  C    -2.549167  2.681189  1.454466
  N    -0.457732 -0.520542  0.869755
  N    -0.437361  3.714936  1.188428
  N    -2.675672 -1.578709  0.207871
  N    -2.353026  2.519862  0.141316
  N    -2.700383 -1.072374  4.032381
  N    -3.022611  2.808807  3.975393
  S    -3.706323 -1.481656  2.807200
  S    -3.712423  2.211266  2.567481
  S    -1.214869 -1.084545 -0.515145
  S    -0.923594  3.174296 -0.300395
  S    -1.227383 -0.419387  3.601651
  S    -1.534877  3.580732  3.767397
