16  
    
  C    -3.907272 -2.045488  1.747054
  C    -3.634032  2.031563  1.722900
  C    -5.150578 -2.425664  1.056634
  C    -4.783491  1.505291  1.116238
  N    -2.961009 -1.725132  0.878797
  N    -2.679727  2.290918  0.862150
  N    -5.062908 -2.595876 -0.252564
  N    -4.737146  1.388822 -0.214131
  N    -5.585946 -2.622933  3.568277
  N    -5.137319  1.216192  3.695353
  S    -6.452080 -2.754897  2.190452
  S    -6.028714  1.114638  2.266208
  S    -3.557682 -2.098941 -0.607077
  S    -3.220313  1.896382 -0.616700
  S    -3.987827 -2.045157  3.425803
  S    -3.713494  2.143440  3.486867
