16  
    
  C    -1.785407 -1.080867  2.482701
  C    -1.861375  2.379611  2.548669
  C    -3.012392 -1.507019  1.879131
  C    -3.147400  2.204104  1.821394
  N    -0.718377 -0.926374  1.665064
  N    -0.848840  2.575545  1.715956
  N    -2.951352 -1.553316  0.539098
  N    -3.018952  2.056283  0.509548
  N    -3.600468 -1.264467  4.308922
  N    -3.676927  2.171892  4.374836
  S    -4.354680 -1.725289  2.894115
  S    -4.478174  1.972370  2.927863
  S    -1.353412 -1.274366  0.142986
  S    -1.413645  2.470367  0.186492
  S    -1.965132 -0.883232  4.229662
  S    -2.038579  2.477488  4.279091
