16  
    
  C     3.499430  1.584498  3.561534
  C     2.960818  5.324860  3.339445
  C     2.173976  1.074584  3.117465
  C     1.893781  4.591802  2.702997
  N     4.415551  1.820256  2.619282
  N     4.053771  5.475495  2.546284
  N     2.126363  0.880037  1.831934
  N     2.103239  4.367592  1.429196
  N     1.885940  1.347522  5.601889
  N     1.309110  4.689267  5.253322
  S     0.929379  0.961299  4.325937
  S     0.526725  4.291713  3.835827
  S     3.582325  1.359004  1.190044
  S     3.675446  4.904549  1.073541
  S     3.480741  1.770689  5.353874
  S     2.735098  5.529512  5.096593
