16  
    
  C    -4.732244 -2.771590  1.490050
  C    -4.659844  0.847772  1.405097
  C    -6.025639 -3.046127  0.944434
  C    -5.926111  0.629176  0.758262
  N    -3.725091 -2.752633  0.650538
  N    -3.606189  1.019689  0.638618
  N    -5.973962 -3.133096 -0.384577
  N    -5.750331  0.750828 -0.566292
  N    -6.399368 -2.595455  3.514555
  N    -6.510967  0.813225  3.277130
  S    -7.295500 -2.983047  2.129572
  S    -7.360870  0.688598  1.775524
  S    -4.404800 -2.894326 -0.880782
  S    -4.179455  0.976512 -0.904201
  S    -4.725469 -2.471367  3.253309
  S    -4.840499  1.053786  3.093336
