16  
    
  C    -5.748908 -2.959582  1.490953
  C    -6.088524  0.955993  1.372111
  C    -6.887683 -3.514340  0.831017
  C    -7.291452  0.294587  0.888162
  N    -4.672580 -2.943793  0.674152
  N    -5.168966  1.360539  0.499202
  N    -6.756248 -3.576982 -0.493613
  N    -7.193046  0.109062 -0.422417
  N    -7.530815 -3.568670  3.333030
  N    -7.489759  0.173213  3.532127
  S    -8.284364 -3.789210  1.840039
  S    -8.319290 -0.377580  2.159152
  S    -5.175637 -3.309428 -0.848156
  S    -5.797923  0.796461 -0.947335
  S    -6.059658 -2.767885  3.261610
  S    -6.091294  0.970443  3.181030
