16  
    
  C     3.240120  1.498775  3.680203
  C     3.264393  4.922454  3.484259
  C     1.955823  1.316508  3.022172
  C     2.009599  4.794945  2.804200
  N     4.292501  1.484636  2.861577
  N     4.287251  5.014450  2.611714
  N     2.028459  1.225325  1.689951
  N     2.081292  4.465188  1.507124
  N     1.484262  1.260005  5.602836
  N     1.342266  5.161601  5.302221
  S     0.637460  1.265230  4.175972
  S     0.614646  4.740121  3.852847
  S     3.655246  1.345244  1.341693
  S     3.668634  4.782025  1.111279
  S     3.068011  1.757377  5.400894
  S     2.965933  5.217675  5.203536
