16  
    
  C    -5.467649 -2.662036  1.584411
  C    -5.513018  0.905701  1.372988
  C    -6.679263 -3.092584  0.876647
  C    -6.693069  0.452527  0.756724
  N    -4.384231 -2.664327  0.815564
  N    -4.543395  1.238331  0.524670
  N    -6.602715 -3.133841 -0.457415
  N    -6.508037  0.288920 -0.573604
  N    -7.273900 -3.341136  3.367581
  N    -7.198007  0.464051  3.267874
  S    -8.039168 -3.341077  1.885854
  S    -8.023274  0.140215  1.778637
  S    -4.973407 -3.035495 -0.762678
  S    -5.025762  0.841816 -0.988812
  S    -5.805530 -2.540506  3.300034
  S    -5.697766  1.208338  3.090147
