16  
    
  C    -2.963513 -1.804587  2.215900
  C    -3.325821  1.726104  2.008148
  C    -4.279927 -1.799374  1.591243
  C    -4.624745  1.333899  1.474280
  N    -1.909420 -1.794023  1.422074
  N    -2.341226  1.909863  1.104176
  N    -4.229990 -1.948738  0.266058
  N    -4.655970  1.276261  0.143364
  N    -4.748497 -1.947667  4.119627
  N    -4.927540  1.400414  4.051252
  S    -5.598929 -1.967146  2.700717
  S    -5.834057  1.084599  2.720968
  S    -2.633379 -1.934349 -0.102678
  S    -3.141944  1.678048 -0.422100
  S    -3.119699 -1.661960  3.941734
  S    -3.335169  1.860863  3.827756
