16  
    
  C    -2.666227 -1.655124  1.906659
  C    -3.127348  1.906448  1.784710
  C    -3.946647 -1.939576  1.324508
  C    -4.252959  1.354149  1.016156
  N    -1.596929 -1.776292  1.138346
  N    -2.145214  2.343102  1.003263
  N    -3.860816 -2.142065  0.023952
  N    -3.980398  1.179664 -0.269710
  N    -4.326438 -1.659852  3.853982
  N    -5.043279  1.567438  3.444904
  S    -5.216933 -1.881616  2.507314
  S    -5.683326  1.078113  2.001913
  S    -2.237473 -2.056017 -0.398568
  S    -2.450573  1.869392 -0.544170
  S    -2.688642 -1.471103  3.615784
  S    -3.510082  2.206404  3.411962
