16  
    
  C    -3.996441 -1.933662  1.712678
  C    -3.652712  1.872860  1.825729
  C    -5.209286 -2.347285  1.054835
  C    -4.870081  1.361172  1.235308
  N    -2.954122 -1.692816  0.900227
  N    -2.712879  2.181456  0.933831
  N    -5.036997 -2.542026 -0.233826
  N    -4.820706  1.377479 -0.090894
  N    -5.789375 -2.051751  3.551493
  N    -5.317368  1.353794  3.729159
  S    -6.367109 -2.809625  2.195356
  S    -6.194088  1.160678  2.297110
  S    -3.486962 -2.098481 -0.587188
  S    -3.314315  1.911719 -0.518719
  S    -4.163187 -1.730062  3.470097
  S    -3.727902  1.972769  3.544382
