16  
    
  C    -4.186075 -2.248048  1.967039
  C    -4.226615  1.475339  1.861899
  C    -5.535083 -2.362254  1.492792
  C    -5.454631  1.186474  1.120448
  N    -3.206292 -2.037737  1.046726
  N    -3.130491  1.415993  1.109217
  N    -5.538749 -2.531364  0.164620
  N    -5.238626  1.090476 -0.216110
  N    -5.757417 -2.230757  4.067786
  N    -6.066908  1.544541  3.628765
  S    -6.778538 -2.331174  2.730974
  S    -6.856680  1.223532  2.160034
  S    -4.027709 -2.251259 -0.400173
  S    -3.639698  1.169209 -0.433843
  S    -4.125970 -1.970641  3.736244
  S    -4.377781  1.480370  3.580550
