16  
    
  C     2.362493  1.057767  3.241046
  C     2.945102  5.316580  3.938650
  C     1.227954  0.514092  2.532315
  C     1.698118  4.948617  3.317667
  N     3.428206  1.195634  2.504534
  N     3.969511  5.329906  3.106007
  N     1.448741  0.290552  1.227684
  N     1.799200  4.649062  2.034508
  N     0.538111  1.152056  4.987549
  N     1.200116  5.836783  5.699225
  S    -0.078143  0.386578  3.644542
  S     0.395780  5.025514  4.478548
  S     3.051925  0.767753  1.012041
  S     3.419427  4.862614  1.687242
  S     2.215347  1.314099  4.913931
  S     2.829691  5.918682  5.543036
