16  
    
  C    -5.339508 -2.431340  1.431608
  C    -5.373541  1.146146  1.299177
  C    -6.540458 -3.005419  0.865683
  C    -6.556768  0.622958  0.659848
  N    -4.378391 -2.180324  0.523054
  N    -4.322447  1.474992  0.510629
  N    -6.559901 -2.918557 -0.481240
  N    -6.433940  0.410897 -0.654574
  N    -7.081482 -2.687460  3.368712
  N    -7.159692  0.865152  3.194066
  S    -7.895461 -3.074159  1.943216
  S    -7.819029  0.088961  1.771308
  S    -5.075702 -2.443487 -0.950035
  S    -4.875185  0.981481 -1.030407
  S    -5.498285 -2.200118  3.150449
  S    -5.508036  1.226119  3.044665
