16  
    
  C    -3.242748 -2.205496  1.919941
  C    -3.798157  1.935314  1.943759
  C    -4.455026 -2.622624  1.282052
  C    -4.686270  1.013098  1.339399
  N    -2.224344 -1.964509  1.089336
  N    -2.719915  2.256718  1.220980
  N    -4.243806 -2.921681  0.030577
  N    -4.371957  0.777800  0.071141
  N    -5.100472 -2.259421  3.700905
  N    -5.614755  1.471293  3.650313
  S    -5.781632 -2.893210  2.317193
  S    -6.032157  0.611870  2.302867
  S    -2.715665 -2.501764 -0.378816
  S    -2.971951  1.600308 -0.255966
  S    -3.606102 -1.586159  3.490083
  S    -4.155178  2.220035  3.648802
