16  
    
  C    -2.793867 -1.517802  2.002556
  C    -3.167999  1.963530  1.853891
  C    -4.057751 -1.843338  1.429838
  C    -4.307998  1.433128  1.124269
  N    -1.806150 -1.317771  1.123030
  N    -2.063586  2.090542  1.135222
  N    -3.952123 -2.160550  0.140383
  N    -4.079756  1.281276 -0.153981
  N    -4.552557 -1.686632  3.932730
  N    -5.121198  1.724138  3.445492
  S    -5.380025 -1.935219  2.504192
  S    -5.733510  1.137159  2.033661
  S    -2.428659 -1.679725 -0.364304
  S    -2.487244  1.616313 -0.381238
  S    -2.983282 -1.255697  3.734562
  S    -3.507431  2.082361  3.578752
