16  
    
  C    -0.105499  0.000257  2.576285
  C    -0.053224  3.660424  2.534737
  C    -1.347898 -0.448328  2.001270
  C    -1.233809  3.007096  1.905301
  N     0.827667  0.300886  1.662643
  N     0.961604  3.790081  1.705544
  N    -1.270624 -0.787601  0.690999
  N    -0.970975  2.554712  0.711521
  N    -1.591365 -0.421965  4.624903
  N    -1.747683  3.486763  4.448250
  S    -2.506777 -0.796872  3.288568
  S    -2.487652  2.728788  3.066457
  S     0.235869 -0.279335  0.230567
  S     0.533878  3.202193  0.230106
  S    -0.090994  0.220041  4.345448
  S    -0.227916  4.074657  4.182476
