16  
    
  C    -0.119365 -0.552202  2.582980
  C     0.004446  3.245425  2.622331
  C    -1.238941 -1.059743  1.886306
  C    -1.155745  2.651980  1.897830
  N     0.860215 -0.137355  1.778349
  N     0.927131  3.757087  1.774960
  N    -1.115009 -1.169202  0.574366
  N    -0.909795  2.334988  0.634262
  N    -1.872592 -0.992173  4.342664
  N    -1.894850  2.879729  4.320865
  S    -2.602720 -1.351138  2.888802
  S    -2.515568  2.303043  2.907493
  S     0.385839 -0.538564  0.212695
  S     0.489913  3.159937  0.241078
  S    -0.227404 -0.486021  4.301999
  S    -0.355435  3.521234  4.334961
