16  
    
  C    -1.591354 -1.162587  2.112451
  C    -1.752560  2.340967  1.953821
  C    -2.899263 -1.373370  1.472265
  C    -2.947036  2.080301  1.264075
  N    -0.621834 -1.100910  1.250575
  N    -0.723447  2.476746  1.129493
  N    -2.899095 -1.520995  0.173434
  N    -2.866209  1.811557 -0.052383
  N    -3.321340 -0.999680  4.028297
  N    -3.548656  2.196777  3.799600
  S    -4.234510 -1.179738  2.662861
  S    -4.324712  1.906014  2.314571
  S    -1.307587 -1.403383 -0.267202
  S    -1.266648  2.198508 -0.399005
  S    -1.687061 -0.909398  3.812704
  S    -1.874158  2.367303  3.690717
