16  
    
  C    -5.093540 -2.400903  1.871298
  C    -5.342349  0.967086  1.616880
  C    -6.382010 -2.809818  1.272191
  C    -6.664280  0.838190  0.969222
  N    -4.082515 -2.521609  1.057168
  N    -4.320329  1.115316  0.779790
  N    -6.332437 -3.154631 -0.012182
  N    -6.612039  0.655518 -0.350651
  N    -6.884796 -2.052409  3.657740
  N    -7.184713  1.069024  3.464450
  S    -7.681624 -2.762168  2.373838
  S    -8.044607  0.939087  2.062262
  S    -4.714343 -2.960946 -0.446183
  S    -5.032342  0.906205 -0.742372
  S    -5.245245 -2.141438  3.614149
  S    -5.537973  1.329373  3.258597
