16  
    
  C    -0.657432 -0.414009  2.645223
  C    -0.365219  3.253874  2.720451
  C    -1.835999 -0.996617  2.083978
  C    -1.455622  2.540302  2.075461
  N     0.368626 -0.302528  1.807284
  N     0.598250  3.684563  1.882148
  N    -1.830633 -1.300966  0.781300
  N    -1.091930  2.164367  0.854196
  N    -2.175333 -0.874945  4.658433
  N    -2.270515  3.047551  4.472820
  S    -3.105809 -0.991329  3.275067
  S    -2.812307  2.309383  3.097799
  S    -0.212123 -0.842306  0.324989
  S     0.417752  2.816160  0.520620
  S    -0.621146 -0.339554  4.420015
  S    -0.714618  3.730086  4.341111
