16  
    
  C     1.557994  0.963565  3.251114
  C     1.894220  4.668621  3.261694
  C     0.413918  0.491314  2.572986
  C     0.716901  3.990421  2.730206
  N     2.627994  1.138220  2.451988
  N     2.941647  4.639950  2.421472
  N     0.573018  0.356490  1.258214
  N     0.853544  3.700314  1.408643
  N    -0.236444  0.567264  5.034141
  N     0.107553  4.522024  5.219237
  S    -0.911735  0.093419  3.545974
  S    -0.588747  4.071977  3.780005
  S     2.119701  0.759239  0.934227
  S     2.337453  4.155684  1.002800
  S     1.234626  1.215233  4.893868
  S     1.785927  4.877364  5.039523
