16  
    
  C     1.056116  0.219539  3.012109
  C     0.520328  3.762947  2.908968
  C    -0.172638 -0.082971  2.236394
  C    -0.511296  3.082036  2.158380
  N     2.089931  0.549464  2.231257
  N     1.607707  4.158701  2.210773
  N     0.101539 -0.127320  0.907773
  N    -0.227603  2.887137  0.876508
  N    -0.795359 -0.227625  4.738044
  N    -1.486484  3.155234  4.480808
  S    -1.556583 -0.359946  3.299881
  S    -1.986067  2.600867  3.050552
  S     1.646348  0.362314  0.588321
  S     1.237120  3.655193  0.597731
  S     0.810953  0.217355  4.769682
  S     0.101477  3.741632  4.582877
