16  
    
  C    -3.953657 -1.933082  1.756248
  C    -3.696373  1.787295  1.817346
  C    -5.105459 -2.339603  1.039661
  C    -4.988402  1.379422  1.205685
  N    -2.946641 -1.672211  0.920577
  N    -2.709621  1.882093  0.904327
  N    -4.966181 -2.615913 -0.240419
  N    -4.938401  1.369695 -0.116668
  N    -5.838150 -1.899395  3.534397
  N    -5.508578  1.613196  3.749115
  S    -6.525080 -2.508939  2.122620
  S    -6.307058  1.133261  2.356021
  S    -3.382687 -2.126372 -0.608434
  S    -3.330025  1.667730 -0.616320
  S    -4.266267 -1.506096  3.373781
  S    -3.850931  1.746727  3.575928
