16  
    
  C     1.779294  0.534065  3.033182
  C     1.882878  4.261696  3.352432
  C     0.482186  0.167229  2.427266
  C     0.639091  3.939174  2.713138
  N     2.738560  0.754815  2.162204
  N     2.929773  4.337130  2.530030
  N     0.513500  0.028739  1.133729
  N     0.650622  4.222207  1.389087
  N     0.202475  0.302051  4.951685
  N     0.137417  3.926520  5.234762
  S    -0.742610  0.109485  3.664876
  S    -0.732271  3.854179  3.807108
  S     2.083545  0.444991  0.676507
  S     2.326177  4.260327  0.955370
  S     1.851235  0.559109  4.747963
  S     1.830490  4.233998  5.000628
