16  
    
  C     1.053888  0.241636  3.004571
  C     0.577773  3.701795  2.944705
  C    -0.157712 -0.080340  2.229014
  C    -0.553598  3.106903  2.169681
  N     2.093530  0.529786  2.255936
  N     1.578547  4.229197  2.224634
  N     0.088618 -0.127438  0.915346
  N    -0.223043  2.895051  0.902577
  N    -0.818305 -0.211814  4.744619
  N    -1.500231  3.152395  4.480137
  S    -1.547221 -0.344847  3.298264
  S    -1.962008  2.577214  3.054503
  S     1.670371  0.331480  0.600452
  S     1.270143  3.662928  0.613827
  S     0.829104  0.224086  4.787612
  S     0.075260  3.747883  4.590446
