16  
    
  C    -0.743306 -0.875217  2.453337
  C    -0.907137  3.156256  2.476034
  C    -1.923908 -1.245970  1.764709
  C    -2.100499  2.728787  1.835708
  N     0.328573 -0.647086  1.653433
  N     0.131905  3.072129  1.641867
  N    -1.782232 -1.382371  0.455056
  N    -2.092618  2.674538  0.480480
  N    -2.688390 -0.965116  4.192940
  N    -2.636903  3.027915  4.345299
  S    -3.340341 -1.639119  2.797528
  S    -3.445988  2.684051  2.958642
  S    -0.229227 -0.958691  0.117100
  S    -0.489014  2.806956  0.111581
  S    -1.095994 -0.569370  4.111309
  S    -1.042072  3.389985  4.191810
