16  
    
  C     1.800305  0.462559  3.179292
  C     1.892856  4.592213  3.346335
  C     0.598335  0.132912  2.450086
  C     0.781552  3.941486  2.668000
  N     2.849135  0.727888  2.448259
  N     2.921139  4.813353  2.527877
  N     0.731524  0.250538  1.146622
  N     0.883699  3.931000  1.319986
  N    -0.025407  0.017768  4.896919
  N     0.340422  4.014399  5.284526
  S    -0.773439 -0.272349  3.467460
  S    -0.466287  3.717904  3.792057
  S     2.357219  0.705957  0.865992
  S     2.394184  4.628864  0.975182
  S     1.502909  0.614246  4.849760
  S     1.906963  4.443437  5.056764
