16  
    
  C    -2.819105 -1.516763  2.012516
  C    -3.184480  1.982984  1.867372
  C    -4.083849 -1.828208  1.417175
  C    -4.280927  1.436260  1.125491
  N    -1.827994 -1.288067  1.138115
  N    -2.039216  2.078609  1.161149
  N    -3.962828 -2.156322  0.115365
  N    -4.085435  1.314242 -0.176367
  N    -4.554355 -1.683312  3.944792
  N    -5.138741  1.740261  3.477734
  S    -5.384177 -1.941104  2.507026
  S    -5.735381  1.139091  2.064156
  S    -2.446962 -1.655543 -0.334997
  S    -2.494212  1.593080 -0.369914
  S    -3.000738 -1.233010  3.736473
  S    -3.514467  2.062582  3.572449
