16  
    
  C    -0.160431 -0.136170  2.701886
  C     0.194957  3.444464  2.292212
  C    -1.362374 -0.630056  2.053289
  C    -1.105759  3.177933  1.679570
  N     0.973641 -0.152087  1.948032
  N     1.112694  3.789517  1.433221
  N    -1.200381 -0.778809  0.729776
  N    -1.071045  3.194482  0.372701
  N    -2.055741 -0.559293  4.472450
  N    -1.510421  3.105594  4.200445
  S    -2.790979 -0.841889  3.012888
  S    -2.349270  2.952821  2.832506
  S     0.376244 -0.547034  0.478191
  S     0.545049  3.474586 -0.078934
  S    -0.403786 -0.307306  4.390998
  S     0.114061  3.426191  4.059467
