16  
    
  C     2.944694  1.469524  3.430262
  C     3.017520  4.947053  3.235973
  C     1.736600  1.020686  2.754718
  C     1.778754  4.536815  2.646823
  N     3.983698  1.760258  2.657027
  N     3.924162  5.329815  2.326475
  N     1.851609  0.971702  1.403403
  N     1.838236  4.333365  1.319932
  N     1.192123  1.140168  5.313669
  N     1.155649  5.016608  5.085095
  S     0.402918  0.790482  3.928536
  S     0.460837  4.275444  3.772152
  S     3.397629  1.433889  1.061222
  S     3.354764  4.794751  0.846079
  S     2.766064  1.596384  5.102812
  S     2.777804  5.443143  4.882959
