16  
    
  C    -5.694392 -2.703455  1.549931
  C    -5.523278  0.940792  1.435140
  C    -6.842506 -3.214367  0.817996
  C    -6.698676  0.419555  0.773158
  N    -4.576223 -2.564411  0.849269
  N    -4.556155  1.128231  0.545446
  N    -6.586619 -3.301193 -0.491254
  N    -6.568221  0.241621 -0.510716
  N    -7.516825 -3.009880  3.317595
  N    -7.296745  0.762780  3.285940
  S    -8.320986 -3.227508  1.832931
  S    -8.024181  0.170573  1.877495
  S    -5.014529 -2.820036 -0.747548
  S    -5.053347  0.694277 -0.935655
  S    -5.838862 -2.594396  3.268204
  S    -5.683410  1.058100  3.159670
