16  
    
  C    -1.759392 -1.140442  2.486436
  C    -1.911062  2.406563  2.564905
  C    -3.020052 -1.444561  1.862252
  C    -3.076891  2.071827  1.852554
  N    -0.785420 -0.893654  1.618578
  N    -0.871471  2.589054  1.765891
  N    -2.934204 -1.623057  0.570243
  N    -2.989821  2.001492  0.497245
  N    -3.611488 -1.207012  4.304960
  N    -3.694777  2.135321  4.386400
  S    -4.415318 -1.701487  2.878951
  S    -4.461704  1.980607  2.943682
  S    -1.387022 -1.257210  0.137684
  S    -1.434306  2.476242  0.209030
  S    -1.943986 -0.881792  4.162207
  S    -2.065993  2.453108  4.300758
