16  
    
  C    -4.490619 -2.422979  1.542683
  C    -4.349871  1.462811  1.913968
  C    -5.616122 -2.889312  0.703931
  C    -5.501251  0.795471  1.357583
  N    -3.541950 -1.880038  0.808435
  N    -3.450965  1.774022  0.995191
  N    -5.356159 -2.960502 -0.600986
  N    -5.531008  0.803816  0.018128
  N    -6.321490 -3.004942  3.194884
  N    -5.963661  0.870933  4.020152
  S    -7.022732 -3.259757  1.650064
  S    -6.824687  0.514179  2.610554
  S    -3.871826 -2.223581 -0.788930
  S    -4.132790  1.421971 -0.515458
  S    -4.743013 -2.372793  3.261885
  S    -4.455169  1.586603  3.683459
