16  
    
  C     2.185056  1.125315  3.455894
  C     2.012390  4.961484  3.129920
  C     0.925504  0.678112  2.897695
  C     0.838379  4.562654  2.383562
  N     3.167460  1.221722  2.562799
  N     3.112522  5.200722  2.437685
  N     0.977972  0.385806  1.616441
  N     1.047436  4.425283  1.069411
  N     0.571762  0.973616  5.469620
  N     0.191232  4.406532  4.923339
  S    -0.312502  0.614139  4.114151
  S    -0.473480  4.209319  3.449948
  S     2.610282  0.680014  1.116440
  S     2.653169  4.971728  0.847823
  S     2.184672  1.152475  5.192239
  S     1.762378  5.018245  4.897860
