16  
    
  C     1.512375  0.738786  2.886207
  C     0.894112  4.002978  2.524465
  C     0.271762  0.306537  2.258924
  C    -0.305780  3.504114  1.825024
  N     2.516426  1.012376  2.079474
  N     1.837762  4.411745  1.704137
  N     0.317573  0.274833  0.909656
  N    -0.123159  3.189993  0.540451
  N    -0.148408  0.194802  4.689665
  N    -0.919952  3.735439  4.363588
  S    -1.035339  0.026924  3.371224
  S    -1.557644  3.137190  2.955588
  S     1.875225  0.674361  0.548961
  S     1.476994  3.712623  0.209022
  S     1.404478  0.796813  4.616425
  S     0.688685  4.318420  4.257873
