16  
    
  C    -0.999691 -0.603327  2.358094
  C    -1.180806  3.045456  2.382715
  C    -2.196509 -0.993720  1.707747
  C    -2.437482  2.815819  1.696887
  N    -0.039776 -0.211403  1.557776
  N    -0.167010  3.050063  1.518573
  N    -2.067657 -1.120646  0.391092
  N    -2.398309  2.627583  0.361644
  N    -2.871384 -0.924431  4.148321
  N    -2.950020  3.200638  4.277808
  S    -3.592548 -1.439711  2.780737
  S    -3.790543  2.935829  2.825547
  S    -0.608080 -0.506760  0.042987
  S    -0.764829  2.690946  0.012161
  S    -1.324074 -0.342859  4.058572
  S    -1.268221  3.249599  4.078958
