16  
    
  C    -1.309356 -0.971291  2.218244
  C    -1.545953  2.985514  1.968471
  C    -2.557268 -1.264772  1.497578
  C    -2.579291  2.218472  1.386605
  N    -0.263976 -0.726403  1.382692
  N    -0.497669  3.327672  1.200808
  N    -2.364979 -1.421194  0.178665
  N    -2.421690  2.158790  0.067799
  N    -3.129023 -1.135927  3.977330
  N    -3.314585  2.548555  3.825697
  S    -3.844852 -1.665960  2.539117
  S    -3.860507  1.809076  2.431942
  S    -0.834511 -0.995246 -0.126476
  S    -0.937138  2.765324 -0.325476
  S    -1.517254 -0.765742  3.910736
  S    -1.884956  3.379842  3.660748
