16  
    
  C    -1.321207 -0.698467  1.843517
  C    -1.266739  3.313879  2.125159
  C    -2.680030 -1.067432  1.462957
  C    -2.352142  2.641181  1.530848
  N    -0.485493 -0.578885  0.832234
  N    -0.355921  3.631998  1.209522
  N    -2.809040 -1.416182  0.224091
  N    -2.423852  2.703385  0.173045
  N    -2.732142 -0.684518  3.941933
  N    -2.861518  2.891871  4.095163
  S    -3.675738 -1.489862  2.872274
  S    -3.590346  2.228720  2.722578
  S    -1.309608 -1.082605 -0.520114
  S    -0.943942  3.262258 -0.306704
  S    -1.201333 -0.229108  3.458232
  S    -1.379539  3.661348  3.808231
