16  
    
  C    -1.529550 -1.334544  2.168406
  C    -1.699349  2.313685  1.942203
  C    -2.780040 -1.319564  1.506655
  C    -2.962154  1.959303  1.301337
  N    -0.495370 -1.351080  1.298127
  N    -0.709069  2.424209  1.059566
  N    -2.758775 -1.546740  0.150917
  N    -2.954682  2.055457 -0.028062
  N    -3.229646 -0.986840  4.057832
  N    -3.455915  2.368573  3.799033
  S    -4.114107 -1.188129  2.636999
  S    -4.312771  1.812739  2.484889
  S    -1.144332 -1.392493 -0.197121
  S    -1.345958  2.233666 -0.443164
  S    -1.588021 -0.789431  3.791370
  S    -1.815088  2.436299  3.633969
