16  
    
  C    -5.895065 -2.944102  1.308874
  C    -5.994097  0.792384  1.376243
  C    -7.068578 -3.361592  0.563972
  C    -7.199153  0.678586  0.643119
  N    -4.746196 -2.983712  0.619029
  N    -4.959357  0.949146  0.575174
  N    -6.900592 -3.436047 -0.744167
  N    -7.060275  0.583013 -0.682429
  N    -7.764450 -3.371843  3.086945
  N    -7.818864  0.278391  3.165944
  S    -8.505502 -3.515792  1.629401
  S    -8.593286  0.318993  1.709122
  S    -5.220015 -3.257955 -1.014408
  S    -5.419320  0.809187 -1.032322
  S    -6.114871 -2.871830  3.028141
  S    -6.197961  0.644952  3.095507
