16  
    
  C    -4.174999 -2.260468  1.976497
  C    -4.192671  1.484154  1.902062
  C    -5.512186 -2.404231  1.505677
  C    -5.441865  1.167806  1.151931
  N    -3.224819 -2.054030  1.072872
  N    -3.139988  1.420010  1.097541
  N    -5.555939 -2.516059  0.159071
  N    -5.260633  1.086837 -0.183168
  N    -5.782832 -2.200527  4.064761
  N    -6.026055  1.525864  3.620121
  S    -6.766669 -2.344268  2.745413
  S    -6.867798  1.215716  2.167023
  S    -4.015918 -2.223079 -0.374591
  S    -3.652378  1.178252 -0.400848
  S    -4.160818 -1.953967  3.731770
  S    -4.371530  1.487272  3.574235
