16  
    
  C     2.365750  1.057779  3.241412
  C     2.943088  5.336263  3.931484
  C     1.227764  0.518921  2.536466
  C     1.702016  4.941302  3.317574
  N     3.425926  1.190177  2.496928
  N     3.973867  5.325787  3.108081
  N     1.449944  0.295924  1.232355
  N     1.801720  4.644384  2.030310
  N     0.542483  1.158951  4.983179
  N     1.192016  5.837862  5.704671
  S    -0.077838  0.387361  3.643866
  S     0.396537  5.018338  4.479707
  S     3.051638  0.768489  1.016264
  S     3.420251  4.863314  1.685368
  S     2.209550  1.313137  4.914413
  S     2.827514  5.918187  5.549245
