16  
    
  C    -2.330245 -1.127707  2.140069
  C    -2.739735  2.653061  2.296462
  C    -3.407466 -1.849991  1.553311
  C    -3.836159  1.959314  1.719541
  N    -1.377778 -0.715333  1.288655
  N    -1.730915  2.956425  1.482327
  N    -3.336192 -1.882202  0.220254
  N    -3.721617  1.746527  0.434972
  N    -4.090589 -1.573740  3.957964
  N    -4.400394  2.149571  4.229376
  S    -4.687382 -2.292279  2.550684
  S    -5.066481  1.427520  2.895681
  S    -1.869032 -1.206963 -0.206228
  S    -2.270301  2.419887 -0.030818
  S    -2.531771 -0.949969  3.897219
  S    -2.891634  2.822594  4.035006
