16  
    
  C     2.467726  1.197831  3.343996
  C     2.864600  5.210604  3.812617
  C     1.352353  0.638833  2.646969
  C     1.667616  4.614791  3.267571
  N     3.575462  1.319546  2.611638
  N     3.854059  5.385185  2.938235
  N     1.677763  0.379894  1.377441
  N     1.863986  4.112273  2.039603
  N     0.569014  0.896136  5.091805
  N     1.233214  5.064243  5.764174
  S    -0.166572  0.453588  3.561603
  S     0.294800  4.706773  4.508819
  S     3.269048  0.788360  1.143689
  S     3.322699  4.735661  1.509626
  S     2.167748  1.384515  5.009530
  S     2.733028  5.717537  5.512441
