16  
    
  C     3.184987  1.465982  3.649495
  C     3.182770  5.043377  3.486491
  C     1.927847  1.341071  3.003313
  C     1.912863  4.764844  2.816769
  N     4.225929  1.419548  2.827462
  N     4.258932  5.002955  2.704898
  N     2.010821  1.318362  1.664924
  N     2.045281  4.545746  1.529500
  N     1.584885  1.211551  5.570766
  N     1.370498  5.145159  5.259875
  S     0.669645  1.313503  4.181334
  S     0.560286  4.747927  3.857347
  S     3.654085  1.337503  1.309544
  S     3.670412  4.727505  1.139468
  S     3.153978  1.752411  5.363001
  S     3.062672  5.220119  5.209887
