16  
    
  C    -0.039394 -0.593061  2.499048
  C    -0.189365  3.427206  2.575495
  C    -1.231714 -1.117097  1.822044
  C    -1.102756  2.506511  2.025816
  N     0.918617 -0.195426  1.642609
  N     0.862436  3.665886  1.782630
  N    -1.142433 -1.197173  0.489277
  N    -0.910348  2.255119  0.748379
  N    -1.781158 -0.937884  4.385304
  N    -1.917254  2.837288  4.442476
  S    -2.542550 -1.306339  2.933972
  S    -2.577097  2.324470  2.944141
  S     0.353328 -0.548213  0.150538
  S     0.416793  3.105542  0.285014
  S    -0.211672 -0.542529  4.276013
  S    -0.402876  3.468938  4.288373
