16  
    
  C     0.129798  0.081367  2.734456
  C     0.030180  3.629368  2.675769
  C    -0.982227 -0.611891  2.132793
  C    -1.018154  2.962314  1.980813
  N     1.167815  0.222584  1.889342
  N     1.126145  3.769048  1.952449
  N    -0.888210 -0.686067  0.789412
  N    -0.805938  2.728287  0.696638
  N    -1.550777 -0.283117  4.614667
  N    -1.708940  3.191369  4.496945
  S    -2.271579 -0.917746  3.239064
  S    -2.329102  2.544358  3.116506
  S     0.640526 -0.193497  0.388735
  S     0.695350  3.373469  0.403463
  S    -0.027387  0.354170  4.422015
  S    -0.194343  3.913054  4.401258
