16  
    
  C     2.508510  1.217435  3.369921
  C     2.837449  5.190269  3.787577
  C     1.380341  0.649885  2.606090
  C     1.679241  4.465735  3.325351
  N     3.626881  1.438947  2.675986
  N     3.827243  5.294173  2.876928
  N     1.676278  0.301945  1.357065
  N     1.693018  4.251086  2.009673
  N     0.567500  0.847096  4.992751
  N     1.162836  4.930309  5.833734
  S    -0.042786  0.487147  3.558925
  S     0.340061  4.557876  4.422609
  S     3.248208  0.771224  1.091596
  S     3.218743  4.634471  1.437252
  S     2.138819  1.378826  5.094978
  S     2.646506  5.687467  5.434691
