16  
    
  C    -3.974639 -1.935768  1.747243
  C    -3.688554  1.890071  1.846890
  C    -5.206638 -2.339355  1.060986
  C    -4.831809  1.349827  1.218455
  N    -2.968115 -1.695511  0.908388
  N    -2.729992  2.140124  0.971481
  N    -5.038361 -2.549576 -0.218636
  N    -4.874268  1.377942 -0.096993
  N    -5.787901 -1.991168  3.514600
  N    -5.330696  1.409310  3.702899
  S    -6.383816 -2.795116  2.174454
  S    -6.194448  1.151261  2.291604
  S    -3.480766 -2.092345 -0.583354
  S    -3.323231  1.889312 -0.506089
  S    -4.173164 -1.696044  3.462755
  S    -3.730525  1.938885  3.547807
