16  
    
  C    -1.118642 -0.613250  2.328055
  C    -1.211574  3.096082  2.287081
  C    -2.309809 -1.137218  1.667742
  C    -2.538718  2.829506  1.718698
  N    -0.091641 -0.313564  1.531783
  N    -0.138638  2.941196  1.491498
  N    -2.209008 -1.055271  0.335243
  N    -2.434758  2.690093  0.402325
  N    -2.898086 -0.836940  4.178815
  N    -2.896351  3.196137  4.214984
  S    -3.600194 -1.415601  2.757545
  S    -3.803138  2.848850  2.874097
  S    -0.645115 -0.492894 -0.048073
  S    -0.811291  2.773171 -0.031654
  S    -1.368620 -0.238684  4.034617
  S    -1.257183  3.251284  4.028644
