16  
    
  C     2.048422  0.624757  3.219699
  C     2.006736  4.205597  3.099212
  C     0.754875  0.319044  2.677219
  C     0.668977  4.102758  2.546059
  N     2.989186  0.685803  2.307568
  N     3.008107  4.285357  2.215406
  N     0.699401  0.071720  1.393460
  N     0.699266  3.869594  1.240393
  N     0.377098  0.696439  5.238779
  N     0.247141  4.229124  4.952257
  S    -0.535922  0.473111  3.801878
  S    -0.627224  3.971026  3.631786
  S     2.278383  0.332076  0.822226
  S     2.334725  3.915700  0.685115
  S     2.067828  0.823531  4.959553
  S     1.837834  4.684970  4.760142
