16  
    
  C    -3.046886 -1.600000  2.281422
  C    -3.329041  1.946130  2.023618
  C    -4.292564 -1.847362  1.584505
  C    -4.551723  1.489669  1.448477
  N    -2.006730 -1.421012  1.488139
  N    -2.350885  2.241878  1.172832
  N    -4.160392 -2.098011  0.277099
  N    -4.547908  1.365416  0.121405
  N    -4.894630 -1.660061  4.141436
  N    -4.894959  1.446495  3.938518
  S    -5.645911 -1.755997  2.708954
  S    -5.773058  1.061426  2.613095
  S    -2.578837 -1.688125 -0.050555
  S    -3.039097  1.762323 -0.293449
  S    -3.211866 -1.509857  4.018668
  S    -3.319883  1.861576  3.692984
