16  
    
  C     0.002202 -0.639167  2.439660
  C    -0.304528  3.353317  2.584463
  C    -1.284774 -0.945589  1.779632
  C    -1.353285  2.539307  2.015658
  N     0.982519 -0.431108  1.585457
  N     0.744405  3.533995  1.777917
  N    -1.234010 -1.049252  0.465200
  N    -1.186103  2.414396  0.703594
  N    -1.661165 -0.850762  4.342864
  N    -1.915965  2.873852  4.539431
  S    -2.532527 -1.318475  2.960532
  S    -2.657875  2.243540  3.111291
  S     0.378002 -0.725159  0.103713
  S     0.344897  2.947075  0.304103
  S    -0.061087 -0.444161  4.187635
  S    -0.389160  3.480134  4.320751
