16  
    
  C    -5.817940 -3.098968  1.539301
  C    -6.149415  0.942386  1.425961
  C    -7.008201 -3.346964  0.750172
  C    -7.272355  0.193627  0.868249
  N    -4.651109 -2.988433  0.898319
  N    -5.278433  1.307421  0.536874
  N    -6.732179 -3.599969 -0.525460
  N    -7.317735  0.123899 -0.441434
  N    -7.637687 -3.386675  3.286303
  N    -7.563825  0.233717  3.378136
  S    -8.383042 -3.667552  1.851969
  S    -8.333819 -0.393979  2.055791
  S    -5.062734 -3.313817 -0.687395
  S    -5.881058  0.847155 -0.968634
  S    -6.031335 -2.849390  3.208622
  S    -6.050554  0.951935  3.161701
