16  
    
  C    -5.788642 -2.954036  1.342530
  C    -5.901360  0.796699  1.549014
  C    -6.902091 -3.653072  0.762798
  C    -7.064672  0.193009  0.919076
  N    -4.821032 -2.663479  0.472040
  N    -5.040467  1.253636  0.652290
  N    -6.763149 -3.805617 -0.538941
  N    -7.014463  0.036553 -0.413848
  N    -7.453343 -3.317307  3.260453
  N    -7.493037  0.296737  3.509142
  S    -8.204779 -3.934502  1.879098
  S    -8.357229 -0.190212  2.061033
  S    -5.356645 -3.089410 -0.996476
  S    -5.632700  0.817378 -0.823989
  S    -5.832183 -2.831032  3.067767
  S    -6.011799  1.100373  3.259276
