16  
    
  C    -2.503945 -1.864594  1.938943
  C    -3.189632  2.173904  1.748784
  C    -3.799512 -1.948030  1.337531
  C    -4.216591  1.448313  0.991659
  N    -1.539559 -1.904976  1.025807
  N    -2.105107  2.361389  0.989244
  N    -3.810318 -2.206603  0.041837
  N    -4.021920  1.315048 -0.321930
  N    -4.302862 -1.647961  3.846334
  N    -5.014462  1.583778  3.417518
  S    -5.192004 -1.856359  2.492233
  S    -5.576591  0.971539  1.962146
  S    -2.209644 -2.140073 -0.458078
  S    -2.512059  1.896666 -0.539814
  S    -2.635383 -1.511525  3.656027
  S    -3.428468  2.221755  3.433364
