16  
    
  C    -2.815335 -2.030796  2.004698
  C    -2.911626  2.511929  1.892531
  C    -4.043083 -2.191363  1.205408
  C    -4.060659  2.017215  1.224422
  N    -1.737798 -1.749315  1.292369
  N    -1.780988  2.518831  1.193064
  N    -3.806740 -2.264137 -0.106599
  N    -3.877994  1.906522 -0.085139
  N    -4.743104 -2.015721  3.740455
  N    -4.668115  1.873143  3.693855
  S    -5.401513 -2.372755  2.275595
  S    -5.362695  1.548985  2.209342
  S    -2.174817 -1.965596 -0.317977
  S    -2.236917  2.171899 -0.345762
  S    -3.104283 -1.690457  3.712355
  S    -3.073073  2.350339  3.601926
