16  
    
  C     2.973025  1.560587  3.436526
  C     2.994412  5.113683  3.265722
  C     1.739836  1.304776  2.714619
  C     1.756043  4.726795  2.557641
  N     4.000597  1.593911  2.607409
  N     4.017163  5.144533  2.425796
  N     1.791877  1.209743  1.396275
  N     1.904920  4.377859  1.295879
  N     1.221949  0.945649  5.230135
  N     1.133100  4.963121  5.073566
  S     0.405123  0.854451  3.753340
  S     0.421598  4.450445  3.640554
  S     3.401422  1.393891  1.049883
  S     3.497028  4.790084  0.914386
  S     2.816628  1.606525  5.202461
  S     2.785939  5.377729  4.965377
