16  
    
  C    -0.172975 -0.177291  2.707503
  C     0.188480  3.567881  2.327794
  C    -1.382732 -0.538178  2.018161
  C    -1.062113  3.138609  1.710504
  N     0.904848 -0.176388  1.946564
  N     1.210960  3.707273  1.439195
  N    -1.257068 -0.718444  0.726049
  N    -1.103044  3.258011  0.369939
  N    -2.003985 -0.500526  4.493366
  N    -1.521368  3.204025  4.248902
  S    -2.779502 -0.818918  3.042181
  S    -2.381034  2.978488  2.812027
  S     0.366832 -0.553625  0.392632
  S     0.481377  3.491132 -0.084569
  S    -0.374951 -0.299717  4.412132
  S     0.098417  3.457833  4.046264
