16  
    
  C    -1.976111 -1.024127  2.058434
  C    -2.497739  2.509731  1.976528
  C    -3.139554 -1.719878  1.454408
  C    -3.769759  2.195401  1.448109
  N    -0.967008 -0.892974  1.243789
  N    -1.468541  2.590955  1.117218
  N    -3.058787 -1.681344  0.150514
  N    -3.707508  1.844999  0.161333
  N    -3.627250 -1.494294  3.952167
  N    -4.175694  2.468964  3.941444
  S    -4.402697 -2.041227  2.569710
  S    -5.027064  1.956109  2.622747
  S    -1.488110 -1.319113 -0.248274
  S    -2.155285  2.171252 -0.337251
  S    -2.122150 -0.845639  3.794177
  S    -2.630201  2.924606  3.704843
