16  
    
  C     1.236360  0.321655  3.131115
  C     0.966949  4.201267  2.590486
  C     0.089935  0.097891  2.322812
  C    -0.031566  3.394365  1.914434
  N     2.407678  0.229225  2.429100
  N     2.091382  4.332412  1.865679
  N     0.276078 -0.092487  1.021898
  N     0.245125  3.208444  0.628176
  N    -0.783670  0.453421  4.765979
  N    -0.949683  3.937642  4.275209
  S    -1.382559  0.277554  3.181314
  S    -1.520054  3.214349  2.841314
  S     1.889061 -0.006379  0.881433
  S     1.754520  3.768170  0.372676
  S     0.913573  0.660197  4.752246
  S     0.601699  4.392190  4.258762
