16  
    
  C     0.092069 -0.656963  2.439614
  C    -0.224743  3.129916  2.624026
  C    -1.230875 -0.848390  1.859199
  C    -1.420953  2.648041  2.071803
  N     1.102793 -0.555974  1.536573
  N     0.743319  3.310180  1.745149
  N    -1.184988 -1.106766  0.537459
  N    -1.399637  2.516035  0.742875
  N    -1.673326 -0.808315  4.415427
  N    -1.888468  2.871747  4.546155
  S    -2.500869 -1.268628  3.036827
  S    -2.657776  2.276976  3.167489
  S     0.385803 -0.887607  0.090243
  S     0.135867  2.929059  0.258706
  S    -0.110910 -0.375401  4.146490
  S    -0.385947  3.479016  4.371801
