16  
    
  C    -2.703370 -1.703860  1.973384
  C    -3.157324  1.921750  1.754955
  C    -3.960603 -1.864322  1.316428
  C    -4.181046  1.273823  1.040147
  N    -1.704172 -1.639747  1.114892
  N    -2.118919  2.271851  1.013791
  N    -3.907662 -2.143433  0.011277
  N    -3.980362  1.159013 -0.266228
  N    -4.364353 -1.668881  3.853417
  N    -5.076708  1.582650  3.478603
  S    -5.219584 -1.891550  2.492243
  S    -5.688050  1.134994  2.041377
  S    -2.249696 -2.008444 -0.370781
  S    -2.443872  1.849865 -0.539346
  S    -2.724336 -1.434729  3.635466
  S    -3.571850  2.172888  3.414847
