16  
    
  C     2.495566  1.100712  3.312629
  C     2.973758  5.379140  3.750588
  C     1.335629  0.609066  2.584003
  C     1.658504  5.040929  3.238225
  N     3.531756  1.305042  2.494481
  N     3.964246  5.160714  2.880492
  N     1.555902  0.460382  1.281867
  N     1.616796  4.801526  1.928564
  N     0.728170  0.692830  5.061416
  N     1.321796  5.471645  5.759228
  S     0.025566  0.228303  3.629536
  S     0.386902  5.441925  4.366451
  S     3.148333  0.928976  1.023685
  S     3.193386  4.616336  1.526080
  S     2.257283  1.308695  5.037669
  S     2.985872  5.649171  5.471098
