16  
    
  C     0.805909  0.360556  3.056199
  C     0.509891  3.962710  2.928190
  C    -0.430668  0.113628  2.419958
  C    -0.659428  3.366199  2.406561
  N     1.832048  0.531029  2.227490
  N     1.560162  3.933193  2.102962
  N    -0.335268 -0.186288  1.140546
  N    -0.603021  2.976575  1.154877
  N    -0.986344  0.257345  4.876233
  N    -1.157640  3.870290  4.872798
  S    -1.817390  0.171097  3.447346
  S    -1.956554  3.320786  3.571734
  S     1.198910  0.131360  0.737051
  S     0.926184  3.338586  0.652708
  S     0.645883  0.618377  4.725481
  S     0.480942  4.194616  4.678206
