16  
    
  C    -0.910426 -0.740402  2.279613
  C    -0.709643  3.011178  2.406028
  C    -1.972425 -1.541891  1.744916
  C    -1.952770  2.598352  1.858942
  N     0.184186 -0.618594  1.498486
  N     0.255914  3.294385  1.540852
  N    -1.702723 -1.868214  0.445733
  N    -1.918817  2.453695  0.562697
  N    -2.750167 -0.964936  4.091396
  N    -2.416746  2.730602  4.350348
  S    -3.433736 -1.478640  2.626324
  S    -3.258474  2.536960  2.975751
  S    -0.264343 -1.260103  0.043510
  S    -0.372398  2.777732  0.069276
  S    -1.206804 -0.346781  3.972586
  S    -0.855196  3.233679  4.202278
