16  
    
  C    -1.400164 -0.938941  2.253985
  C    -1.499334  2.965037  2.005446
  C    -2.504028 -1.382135  1.488298
  C    -2.574320  2.264609  1.345929
  N    -0.284668 -0.779877  1.518687
  N    -0.457608  3.175538  1.239495
  N    -2.398786 -1.350661  0.138174
  N    -2.427323  2.016419  0.053918
  N    -3.176268 -1.335566  3.984685
  N    -3.311485  2.460740  3.820210
  S    -3.874641 -1.641907  2.531345
  S    -3.878835  1.696051  2.445867
  S    -0.738028 -1.012129 -0.071760
  S    -0.926192  2.680547 -0.288466
  S    -1.595327 -0.759178  3.962893
  S    -1.916790  3.330625  3.631398
