16  
    
  C    -1.837281 -0.921102  2.354462
  C    -1.860088  2.423927  2.606601
  C    -3.128532 -1.248283  1.810939
  C    -3.057457  2.022045  1.885456
  N    -0.838553 -0.976680  1.445980
  N    -0.838672  2.705662  1.830649
  N    -3.073052 -1.567893  0.514926
  N    -2.864506  1.883348  0.578959
  N    -3.394871 -1.245904  4.331541
  N    -3.714699  2.089883  4.368110
  S    -4.331806 -1.415792  2.974732
  S    -4.444408  1.623523  2.934589
  S    -1.522193 -1.359062  0.029910
  S    -1.296144  2.219349  0.294422
  S    -1.827671 -0.743590  4.064945
  S    -2.124113  2.515679  4.305028
