16  
    
  C    -4.927314 -2.530051  1.940875
  C    -5.350412  0.935349  1.774189
  C    -6.112568 -3.064062  1.284471
  C    -6.585182  0.623862  1.075861
  N    -3.852943 -2.527422  1.139653
  N    -4.351279  1.096701  0.934901
  N    -5.976239 -3.172794 -0.020766
  N    -6.448400  0.464960 -0.218783
  N    -6.816750 -2.573983  3.767186
  N    -7.183736  1.028501  3.645746
  S    -7.489785 -3.082911  2.343269
  S    -7.887894  0.616364  2.181320
  S    -4.403052 -2.959195 -0.382003
  S    -4.859840  0.836503 -0.589809
  S    -5.166545 -2.298791  3.647578
  S    -5.516552  1.343179  3.454218
