16  
    
  C     1.378813  0.412055  3.068895
  C     0.960685  3.943915  2.653669
  C     0.195965  0.143042  2.315950
  C    -0.151204  3.480329  1.842538
  N     2.475391  0.302496  2.324953
  N     1.953338  4.347213  1.838078
  N     0.399340 -0.088841  1.003430
  N     0.170037  3.209374  0.567291
  N    -0.626235  0.613046  4.691095
  N    -0.974531  3.714891  4.263266
  S    -1.332806  0.329828  3.247427
  S    -1.572406  3.248615  2.780370
  S     2.055804 -0.047887  0.756559
  S     1.672937  3.811296  0.310815
  S     1.007981  0.881738  4.765443
  S     0.624214  4.263201  4.305667
