16  
    
  C     0.890226  0.261006  2.939157
  C     0.492369  3.605180  2.953732
  C    -0.351619 -0.058523  2.296763
  C    -0.813134  3.656534  2.379869
  N     1.926646  0.391683  2.089477
  N     1.449444  3.730717  2.033488
  N    -0.234354 -0.352180  0.997213
  N    -0.871994  3.520455  1.037310
  N    -0.897104  0.207614  4.797945
  N    -1.140223  3.513049  4.943710
  S    -1.726124 -0.196085  3.389109
  S    -2.021215  3.305503  3.586718
  S     1.323634 -0.033811  0.604943
  S     0.715498  3.844020  0.540345
  S     0.739795  0.570290  4.652636
  S     0.542656  3.641944  4.695893
