16  
    
  C    -1.522812 -1.158661  2.727821
  C    -1.595526  2.637487  2.399332
  C    -2.601154 -1.635494  1.873357
  C    -2.829088  2.258723  1.683849
  N    -0.419612 -0.857921  2.033319
  N    -0.498169  2.779342  1.625936
  N    -2.343652 -1.652363  0.541402
  N    -2.564630  1.849647  0.451960
  N    -3.464064 -1.477150  4.322945
  N    -3.529630  2.467028  4.118155
  S    -4.021115 -1.917836  2.798794
  S    -4.237730  2.056399  2.663299
  S    -0.771438 -1.190667  0.451893
  S    -0.954591  2.242578  0.091316
  S    -1.802568 -1.207479  4.401521
  S    -1.915548  2.881307  4.099124
