16  
    
  C     2.285391  0.741376  3.519924
  C     1.863706  5.092598  3.153400
  C     1.001556  0.595860  2.891876
  C     0.800834  4.544268  2.329272
  N     3.307126  0.760156  2.664297
  N     2.922848  5.300179  2.428859
  N     1.076484  0.574091  1.560303
  N     1.118648  4.333131  1.060076
  N     0.641523  1.066380  5.515597
  N    -0.019416  4.819193  4.789209
  S    -0.274736  0.552194  4.176770
  S    -0.548693  4.103650  3.397449
  S     2.670491  0.654856  1.165507
  S     2.709611  4.851991  0.857784
  S     2.262537  1.144446  5.226126
  S     1.611521  5.294762  4.855096
