16  
    
  C    -3.984260 -1.938435  1.732875
  C    -3.675758  1.885337  1.839131
  C    -5.213741 -2.341402  1.055006
  C    -4.843629  1.352129  1.225734
  N    -2.962374 -1.693984  0.902301
  N    -2.725359  2.155147  0.953399
  N    -5.037029 -2.546737 -0.220665
  N    -4.854161  1.378551 -0.092461
  N    -5.788742 -2.013568  3.529873
  N    -5.325647  1.386925  3.713480
  S    -6.374200 -2.801152  2.181897
  S    -6.195287  1.155007  2.292906
  S    -3.483117 -2.094402 -0.583794
  S    -3.318950  1.899004 -0.509033
  S    -4.170105 -1.709734  3.466554
  S    -3.728415  1.952544  3.545840
