16  
    
  C    -0.390124 -0.450407  2.397810
  C    -0.431999  3.664073  2.874288
  C    -1.619417 -0.878106  1.793571
  C    -1.530054  2.949161  2.233279
  N     0.561607 -0.154763  1.524761
  N     0.626531  3.722973  2.092804
  N    -1.513640 -1.172003  0.498267
  N    -1.368149  2.670299  0.945532
  N    -2.149171 -0.732868  4.313687
  N    -2.139436  3.215033  4.675066
  S    -3.002671 -1.080042  2.919260
  S    -2.915147  2.934416  3.311443
  S     0.022457 -0.702839  0.038715
  S     0.134038  3.214679  0.572006
  S    -0.496368 -0.363250  4.111384
  S    -0.589362  3.734282  4.628100
