16  
    
  C     3.401715  1.483305  3.614013
  C     3.063967  5.238881  3.430980
  C     2.141745  1.013572  3.101039
  C     1.938419  4.629201  2.729177
  N     4.294325  1.659737  2.668954
  N     4.100094  5.517004  2.624232
  N     2.123742  0.823956  1.807353
  N     2.153874  4.265956  1.504648
  N     1.807863  1.324589  5.635384
  N     1.220079  4.827442  5.161408
  S     0.875440  0.987747  4.275098
  S     0.613662  4.226955  3.712904
  S     3.591048  1.280747  1.208179
  S     3.577181  4.925381  1.107512
  S     3.374251  1.885638  5.283896
  S     2.740277  5.469731  5.062915
