16  
    
  C    -3.958041 -1.873474  1.768324
  C    -3.704332  1.835424  1.852187
  C    -5.103310 -2.396663  1.104871
  C    -4.952800  1.385335  1.192656
  N    -2.930590 -1.696080  0.954293
  N    -2.699149  2.095136  1.040981
  N    -5.035136 -2.538950 -0.224937
  N    -4.899413  1.363271 -0.142304
  N    -5.811551 -1.914649  3.435371
  N    -5.380580  1.527941  3.681727
  S    -6.482966 -2.739416  2.153892
  S    -6.171598  1.131710  2.299632
  S    -3.471278 -2.090951 -0.590265
  S    -3.351775  1.819821 -0.525475
  S    -4.172739 -1.611466  3.440199
  S    -3.765270  1.862903  3.579677
