16  
    
  C     1.067357  0.095325  2.907248
  C     0.929906  3.679216  3.004746
  C    -0.173737 -0.449043  2.474087
  C    -0.377034  3.406542  2.474613
  N     1.997336  0.210734  1.985107
  N     1.912834  3.860489  2.151370
  N    -0.213391 -0.662613  1.151743
  N    -0.405361  3.206802  1.179644
  N    -0.419677 -0.093462  5.071997
  N    -0.740031  3.584427  5.008286
  S    -1.323099 -0.525056  3.740558
  S    -1.680773  3.309794  3.648114
  S     1.262075 -0.247622  0.552052
  S     1.135044  3.481897  0.651536
  S     1.156732  0.380938  4.646522
  S     0.827935  4.040985  4.709837
