16  
    
  C    -3.974181 -1.841288  1.740349
  C    -3.595437  1.838380  1.799931
  C    -5.137645 -2.423682  1.063873
  C    -4.821830  1.462480  1.171491
  N    -2.936837 -1.698596  0.914694
  N    -2.648533  2.285156  0.968200
  N    -5.062379 -2.515894 -0.279923
  N    -4.755188  1.344052 -0.140622
  N    -5.723557 -2.261680  3.627896
  N    -5.243167  1.238956  3.742287
  S    -6.422116 -2.839933  2.246234
  S    -6.163461  1.181736  2.355916
  S    -3.488558 -2.118545 -0.634979
  S    -3.300622  1.946403 -0.607019
  S    -4.111732 -1.825077  3.454799
  S    -3.762377  2.043206  3.540171
