16  
    
  C     3.339430  1.500891  3.461495
  C     3.203481  5.158194  3.482290
  C     1.996763  1.403306  2.897479
  C     1.916178  4.728525  2.923507
  N     4.344626  1.516044  2.594521
  N     4.228931  4.971435  2.631202
  N     1.948397  1.252998  1.573169
  N     1.995385  4.506602  1.603127
  N     1.679239  1.697193  5.443596
  N     1.405145  5.080442  5.381164
  S     0.788804  1.492700  4.112620
  S     0.559944  4.708360  3.985190
  S     3.512111  1.332567  1.065096
  S     3.554456  4.670497  1.155908
  S     3.311564  1.551586  5.262441
  S     3.032135  5.352458  5.284768
