16  
    
  C    -1.522720 -1.142034  2.295086
  C    -1.870593  2.549323  2.160701
  C    -2.847604 -1.312055  1.698387
  C    -3.014935  2.022420  1.520639
  N    -0.536670 -0.961569  1.392923
  N    -0.840184  2.610692  1.342501
  N    -2.804287 -1.605269  0.363955
  N    -2.949480  1.709352  0.233949
  N    -3.248360 -0.911389  4.239353
  N    -3.510256  2.159483  4.074035
  S    -4.159923 -1.237550  2.891312
  S    -4.332240  1.840286  2.683552
  S    -1.213820 -1.402154 -0.108838
  S    -1.365919  2.169405 -0.165693
  S    -1.557198 -0.927397  4.003890
  S    -1.901046  2.575303  3.884181
