16  
    
  C     1.163261  0.173056  3.039319
  C     0.592354  3.809957  3.152425
  C    -0.052006 -0.285307  2.331041
  C    -0.381405  3.080651  2.351786
  N     2.211964  0.277433  2.221529
  N     1.692623  4.212371  2.469121
  N     0.148099 -0.465334  1.039066
  N    -0.242631  3.270259  1.030570
  N    -0.684180  0.039117  4.886852
  N    -1.350214  2.995165  4.739263
  S    -1.394888 -0.339979  3.464187
  S    -1.877419  2.689904  3.240949
  S     1.707356 -0.090706  0.674478
  S     1.300689  3.849551  0.841543
  S     0.910694  0.551432  4.755517
  S     0.169073  3.744819  4.837913
