16  
    
  C    -5.360562 -2.470996  1.410163
  C    -5.361733  1.185436  1.304657
  C    -6.576932 -2.902569  0.802303
  C    -6.567990  0.678894  0.654612
  N    -4.416694 -2.245918  0.524653
  N    -4.394986  1.459807  0.459600
  N    -6.574934 -2.974897 -0.515638
  N    -6.388883  0.461779 -0.635996
  N    -7.019094 -2.789209  3.342626
  N    -7.172093  0.773143  3.151681
  S    -7.827403 -3.127278  1.951390
  S    -7.796959  0.074405  1.773730
  S    -5.081851 -2.509114 -0.953181
  S    -4.875491  0.995605 -1.032652
  S    -5.504779 -2.232640  3.113613
  S    -5.556663  1.189614  2.993551
