16  
    
  C    -3.023852 -1.518256  2.240620
  C    -3.225613  1.862553  2.000951
  C    -4.306125 -1.782418  1.574567
  C    -4.438942  1.357135  1.336774
  N    -2.023271 -1.187870  1.415627
  N    -2.178840  2.095629  1.186263
  N    -4.157109 -1.964829  0.243101
  N    -4.340401  1.323223  0.022292
  N    -4.865909 -1.550808  4.043455
  N    -5.016225  1.580640  3.869847
  S    -5.641403 -1.882364  2.622713
  S    -5.767376  1.211332  2.464844
  S    -2.586471 -1.586079 -0.080203
  S    -2.817422  1.790302 -0.375366
  S    -3.189127 -1.208875  3.986584
  S    -3.426222  1.883056  3.794912
