16  
    
  C     3.138584  1.729935  3.236563
  C     3.099176  5.100964  3.386426
  C     1.861254  1.503639  2.613413
  C     1.836506  4.886825  2.717432
  N     4.242584  1.528010  2.526433
  N     4.174975  5.068007  2.596234
  N     1.988277  1.164612  1.339283
  N     2.012373  4.594268  1.445995
  N     1.503900  1.541353  5.211265
  N     1.284415  5.014922  5.263924
  S     0.627722  1.565600  3.808095
  S     0.505666  4.546392  3.859605
  S     3.590632  1.122565  0.974793
  S     3.588778  4.777213  1.040481
  S     3.141926  1.965847  4.975312
  S     2.955317  5.224434  5.131305
