16  
    
  C    -0.121518 -0.500936  2.649435
  C    -0.000864  3.336907  2.471122
  C    -1.333109 -0.874650  1.881326
  C    -1.095713  2.763056  1.811163
  N     0.899763 -0.153300  1.884647
  N     1.079734  3.596355  1.787025
  N    -1.062197 -1.046545  0.582397
  N    -0.975381  2.732099  0.488608
  N    -2.039955 -0.896939  4.403473
  N    -1.840222  2.963135  4.290629
  S    -2.616816 -1.409851  2.985640
  S    -2.404702  2.298844  2.883076
  S     0.476790 -0.531420  0.320225
  S     0.594943  3.255619  0.204518
  S    -0.455211 -0.399350  4.333937
  S    -0.213689  3.513764  4.180811
