16  
    
  C     1.168164  0.148203  3.049351
  C     0.606750  3.805173  3.189648
  C    -0.043806 -0.287817  2.344575
  C    -0.388607  3.089367  2.330851
  N     2.209518  0.289634  2.231265
  N     1.676383  4.209292  2.487362
  N     0.135527 -0.502521  1.062955
  N    -0.275975  3.280162  1.033690
  N    -0.659745  0.057961  4.871004
  N    -1.320511  3.005149  4.771330
  S    -1.372926 -0.349061  3.484651
  S    -1.862538  2.721621  3.249254
  S     1.695046 -0.111913  0.681051
  S     1.298625  3.848009  0.838261
  S     0.912185  0.558515  4.719260
  S     0.191078  3.734113  4.867002
