16  
    
  C    -4.821865 -2.259691  1.733318
  C    -4.874338  0.976740  1.753272
  C    -6.001120 -2.886453  1.150504
  C    -6.032141  0.420104  1.080902
  N    -3.818770 -2.113931  0.835554
  N    -3.846829  1.336186  0.945610
  N    -5.967146 -2.965577 -0.182736
  N    -5.873353  0.189756 -0.216064
  N    -6.408755 -2.717462  3.746967
  N    -6.768438  0.954045  3.481510
  S    -7.183227 -3.215444  2.383648
  S    -7.304015  0.111326  2.139793
  S    -4.393132 -2.614452 -0.637505
  S    -4.341909  0.858452 -0.591176
  S    -4.860530 -2.191323  3.498225
  S    -5.240097  1.489970  3.378248
