16  
    
  C    -0.605286 -0.434539  2.676070
  C    -0.403129  3.298512  2.694880
  C    -1.829508 -1.079392  2.123545
  C    -1.396680  2.518614  2.084068
  N     0.404854 -0.356010  1.771488
  N     0.587200  3.656071  1.901737
  N    -1.788338 -1.345953  0.798866
  N    -1.123605  2.195111  0.835007
  N    -2.182442 -0.870054  4.651029
  N    -2.280871  3.056216  4.495960
  S    -3.117032 -1.002560  3.293886
  S    -2.808206  2.308703  3.074826
  S    -0.230819 -0.859857  0.327785
  S     0.408100  2.818247  0.509292
  S    -0.593730 -0.354519  4.426710
  S    -0.712517  3.730723  4.375355
