16  
    
  C     3.546162  2.164569  3.580752
  C     3.434466  5.296793  3.509193
  C     2.446752  1.596399  2.883089
  C     2.165260  4.970361  2.917303
  N     4.604534  2.279420  2.846500
  N     4.387028  5.616104  2.662974
  N     2.696016  1.340144  1.600574
  N     2.222460  4.827422  1.585049
  N     1.854551  1.788152  5.423502
  N     1.619155  4.892470  5.492603
  S     1.141768  1.334792  4.010724
  S     0.917519  4.564827  4.041622
  S     4.274304  1.706135  1.343799
  S     3.785076  5.143546  1.118658
  S     3.446862  2.171748  5.315884
  S     3.229579  5.354283  5.326075
