16  
    
  C    -2.107805 -0.903103  2.313531
  C    -1.970027  2.245122  2.038290
  C    -3.324212 -1.327940  1.676903
  C    -3.233310  1.993090  1.342234
  N    -1.057867 -0.946161  1.507662
  N    -0.980166  2.383458  1.170193
  N    -3.308019 -1.370443  0.346022
  N    -3.149822  1.762165  0.036741
  N    -3.850930 -1.123674  4.123487
  N    -3.793887  2.386270  3.817786
  S    -4.718213 -1.217237  2.724411
  S    -4.562877  1.805822  2.475574
  S    -1.719239 -1.269548 -0.019567
  S    -1.567971  2.136565 -0.346613
  S    -2.275694 -0.634589  3.989378
  S    -2.143600  2.483965  3.752544
