16  
    
  C     2.054074  0.596821  3.230422
  C     2.038462  4.335539  3.078143
  C     0.767220  0.278720  2.679208
  C     0.792091  3.954612  2.474607
  N     3.022474  0.712586  2.304545
  N     3.028425  4.297394  2.208843
  N     0.770009  0.029505  1.345783
  N     0.757757  3.892611  1.167442
  N     0.417611  0.711672  5.202948
  N     0.307315  4.246818  4.962395
  S    -0.507958  0.562193  3.771829
  S    -0.589933  3.967749  3.596917
  S     2.255371  0.347941  0.873449
  S     2.330636  3.904070  0.714936
  S     2.053684  0.850498  4.937432
  S     1.821320  4.732889  4.739576
