16  
    
  C    -2.531006 -1.932376  1.927450
  C    -3.102835  2.183155  1.709721
  C    -3.838568 -2.071653  1.336866
  C    -4.161110  1.537577  1.001448
  N    -1.511775 -1.993740  1.073292
  N    -2.051017  2.500353  0.970343
  N    -3.786648 -2.307183  0.046189
  N    -4.019905  1.533996 -0.313215
  N    -4.332212 -1.787028  3.797180
  N    -4.959847  1.601973  3.517080
  S    -5.142966 -1.834925  2.407200
  S    -5.511554  1.013346  2.045222
  S    -2.179253 -2.165307 -0.412362
  S    -2.473448  2.065757 -0.609588
  S    -2.638806 -1.628485  3.647278
  S    -3.372373  2.274228  3.468518
