16  
    
  C     3.197803  1.600818  3.760808
  C     3.212842  4.943566  3.483970
  C     2.032134  1.162308  3.059285
  C     1.957357  4.715938  2.756506
  N     4.190802  1.749748  2.894782
  N     4.209324  5.178114  2.654581
  N     2.100320  0.957779  1.737250
  N     2.112617  4.500397  1.429340
  N     1.315184  1.617629  5.525639
  N     1.397915  5.113220  5.199711
  S     0.590808  1.160356  4.057919
  S     0.565513  4.558904  3.792471
  S     3.689035  1.329557  1.437151
  S     3.745403  4.804120  1.159439
  S     2.992099  1.747856  5.484877
  S     3.064961  5.246973  5.150154
