16  
    
  C    -3.844460 -2.276540  1.640751
  C    -3.515865  1.824815  1.560476
  C    -5.153957 -2.483839  1.012786
  C    -4.723733  1.333441  0.980375
  N    -2.822509 -2.027731  0.839082
  N    -2.467927  2.147941  0.757099
  N    -5.108579 -2.338823 -0.336058
  N    -4.589633  1.110324 -0.338213
  N    -5.587309 -2.367425  3.543274
  N    -5.218126  1.581974  3.600341
  S    -6.475794 -2.743367  2.143976
  S    -5.878183  0.966457  2.199670
  S    -3.521199 -2.021958 -0.717297
  S    -3.079016  1.693311 -0.802785
  S    -3.951796 -2.527793  3.361987
  S    -3.651321  2.145258  3.331002
