16  
    
  C    -3.785691 -2.448884  1.603216
  C    -3.341446  1.671777  1.618320
  C    -5.091276 -2.372986  0.975748
  C    -4.536691  1.100769  1.013634
  N    -2.774856 -2.287993  0.796238
  N    -2.357334  1.948353  0.769116
  N    -5.066901 -2.121610 -0.341251
  N    -4.486793  0.898130 -0.289797
  N    -5.579787 -2.620556  3.516438
  N    -5.085696  1.480315  3.507013
  S    -6.452148 -2.745408  2.081783
  S    -5.887521  0.947597  2.101162
  S    -3.455485 -2.061789 -0.751935
  S    -3.016643  1.473505 -0.750474
  S    -3.924361 -2.595698  3.347655
  S    -3.563160  2.179479  3.196839
