16  
    
  C    -0.845330 -0.738504  2.347405
  C    -0.835637  3.185773  2.385299
  C    -2.008672 -1.388467  1.651801
  C    -2.060417  2.626681  1.870810
  N     0.198191 -0.503459  1.553001
  N     0.227164  3.206071  1.555358
  N    -1.730423 -1.700935  0.425504
  N    -1.939421  2.448680  0.542029
  N    -2.723667 -0.841518  4.114572
  N    -2.417972  2.801362  4.334740
  S    -3.332221 -1.568402  2.694314
  S    -3.343787  2.612688  3.018928
  S    -0.173074 -1.205077  0.109110
  S    -0.424732  2.890275  0.071916
  S    -1.115519 -0.546771  4.094403
  S    -0.861663  3.275739  4.163323
