16  
    
  C    -1.090286 -0.697903  2.230624
  C    -0.709825  2.970174  2.632268
  C    -2.240458 -1.381997  1.721738
  C    -1.982328  2.618680  1.990619
  N    -0.012811 -0.680286  1.433003
  N     0.324508  3.080052  1.761629
  N    -2.159266 -1.643662  0.394308
  N    -1.801660  2.313688  0.718742
  N    -2.856840 -0.677742  4.132026
  N    -2.571585  2.968418  4.457326
  S    -3.548142 -1.447147  2.785971
  S    -3.334211  2.538099  3.015549
  S    -0.565341 -1.264508 -0.018749
  S    -0.267812  2.683527  0.284327
  S    -1.252484 -0.287548  3.966799
  S    -0.920583  3.284928  4.342374
