16  
    
  C     3.129464  1.600433  3.715575
  C     3.155713  5.249850  3.407226
  C     1.975935  1.107008  3.037063
  C     1.974219  4.664765  2.740325
  N     4.172079  1.816284  2.964812
  N     4.267774  5.184255  2.691683
  N     2.198366  0.806120  1.764963
  N     2.157428  4.474861  1.416811
  N     1.310754  1.649285  5.479434
  N     1.361218  4.890665  5.243500
  S     0.568241  1.141433  4.109507
  S     0.641760  4.462579  3.826432
  S     3.758346  1.298805  1.417317
  S     3.756559  4.819265  1.101092
  S     2.931731  1.832280  5.393735
  S     2.960721  5.266219  5.088246
