16  
    
  C     3.789135  1.932910  3.727682
  C     3.580867  5.234988  3.562669
  C     2.620517  1.522381  2.938922
  C     2.360754  4.970000  2.895348
  N     4.841545  2.181498  2.978250
  N     4.585721  5.627731  2.767775
  N     2.786665  1.365632  1.605051
  N     2.450951  4.986402  1.559301
  N     1.838074  1.825242  5.465335
  N     1.792453  5.138345  5.504982
  S     1.204238  1.618950  3.902485
  S     1.009558  4.870408  4.065013
  S     4.392184  1.940798  1.391956
  S     4.065606  5.370493  1.226087
  S     3.461154  2.280927  5.413697
  S     3.396147  5.428466  5.305097
