16  
    
  C     2.503194  1.110031  3.306120
  C     2.962834  5.369048  3.735122
  C     1.340610  0.616272  2.593895
  C     1.623187  5.053269  3.238400
  N     3.575514  1.335032  2.554241
  N     3.943389  5.130647  2.844299
  N     1.573588  0.532140  1.280180
  N     1.604574  4.833752  1.911675
  N     0.708438  0.711907  5.064636
  N     1.331136  5.450820  5.738284
  S     0.003033  0.195267  3.669534
  S     0.360227  5.443299  4.358652
  S     3.186424  0.974815  1.015295
  S     3.197566  4.606638  1.531300
  S     2.283900  1.284960  5.039432
  S     3.019741  5.599361  5.429922
