16  
    
  C    -1.973959 -1.045637  2.256028
  C    -2.305532  2.461681  1.948633
  C    -3.143555 -1.633815  1.589619
  C    -3.549601  2.074600  1.421109
  N    -0.961866 -0.860520  1.411517
  N    -1.322066  2.531009  1.032482
  N    -3.040273 -1.710694  0.276309
  N    -3.575072  1.806912  0.119473
  N    -3.881139 -1.071819  3.995417
  N    -3.956572  2.395400  3.893641
  S    -4.556515 -1.613196  2.594178
  S    -4.887043  2.016511  2.595393
  S    -1.515812 -1.248975 -0.135265
  S    -2.033898  2.129515 -0.381110
  S    -2.225006 -0.809548  4.011407
  S    -2.396477  2.825897  3.615942
