16  
    
  C     1.209373  0.330224  3.119649
  C     1.004922  4.192307  2.569935
  C     0.030882  0.077125  2.320738
  C    -0.015814  3.501230  1.939650
  N     2.344137  0.218593  2.420490
  N     2.095843  4.318102  1.857291
  N     0.248084 -0.094577  1.021393
  N     0.280131  3.184574  0.696780
  N    -0.803756  0.413229  4.757071
  N    -0.984329  3.973303  4.274509
  S    -1.393679  0.264799  3.195458
  S    -1.505739  3.203813  2.880116
  S     1.879778  0.003527  0.895557
  S     1.760184  3.749429  0.366145
  S     0.892198  0.609740  4.761518
  S     0.607204  4.421386  4.236747
