16  
    
  C     3.182312  1.469022  3.636984
  C     3.193635  5.015085  3.478328
  C     1.920265  1.333760  3.009324
  C     1.917421  4.783346  2.819170
  N     4.229481  1.424140  2.817689
  N     4.267759  5.003851  2.692390
  N     2.016580  1.309571  1.674234
  N     2.046811  4.525713  1.536245
  N     1.570732  1.210941  5.582092
  N     1.366064  5.147356  5.268814
  S     0.671041  1.307879  4.180008
  S     0.568477  4.746960  3.851299
  S     3.659716  1.339509  1.321715
  S     3.672075  4.737527  1.132328
  S     3.140004  1.755689  5.370194
  S     3.050191  5.220455  5.211503
