16  
    
  C    -0.060649 -0.683085  2.596892
  C    -0.258219  3.126332  2.652987
  C    -1.292140 -1.135804  2.052800
  C    -1.567133  2.732716  2.085001
  N     0.895866 -0.580415  1.692241
  N     0.592303  3.504251  1.688698
  N    -1.289044 -1.554714  0.780850
  N    -1.474677  2.482550  0.792728
  N    -1.821946 -0.685347  4.544724
  N    -1.938490  2.881333  4.568125
  S    -2.646825 -1.183416  3.189518
  S    -2.810624  2.522708  3.199516
  S     0.257191 -1.155502  0.271334
  S     0.041288  2.895858  0.265464
  S    -0.150990 -0.308200  4.363712
  S    -0.385151  3.340557  4.422778
