16  
    
  C     2.502713  1.220469  3.367868
  C     2.840060  5.238220  3.782949
  C     1.380580  0.647286  2.621352
  C     1.699355  4.447477  3.325236
  N     3.609137  1.413030  2.661621
  N     3.868535  5.321509  2.909406
  N     1.673011  0.332614  1.378337
  N     1.741596  4.214185  2.003233
  N     0.558241  0.851993  5.004615
  N     1.195631  4.962707  5.835706
  S    -0.099236  0.468659  3.571817
  S     0.310479  4.615932  4.457237
  S     3.270297  0.772909  1.101579
  S     3.254165  4.664540  1.446030
  S     2.155103  1.381071  5.068151
  S     2.667050  5.694146  5.458088
