16  
    
  C    -5.753231 -2.894501  1.205943
  C    -5.790461  0.828800  1.598330
  C    -6.906248 -3.515000  0.662617
  C    -6.956293  0.306418  0.906020
  N    -4.919449 -2.448115  0.271133
  N    -4.798295  1.187752  0.750765
  N    -6.873804 -3.667698 -0.647185
  N    -6.823681  0.146533 -0.426837
  N    -7.426610 -3.110490  3.171575
  N    -7.652192  0.681201  3.437986
  S    -8.104687 -3.806249  1.850222
  S    -8.271598 -0.027319  2.021413
  S    -5.468320 -2.963307 -1.160573
  S    -5.315221  0.733352 -0.760601
  S    -5.829772 -2.787082  2.931232
  S    -6.025763  1.016893  3.309186
