16  
    
  C     3.273190  1.636702  3.623653
  C     3.115965  5.063091  3.404920
  C     2.033247  1.132547  3.020195
  C     1.968845  4.572351  2.705367
  N     4.323272  1.626612  2.805231
  N     4.149697  5.405156  2.628593
  N     2.078926  0.836742  1.712923
  N     2.236121  4.284992  1.391228
  N     1.496554  1.470853  5.541397
  N     1.184775  5.004770  5.147787
  S     0.683719  0.980179  4.157797
  S     0.645663  4.160437  3.830854
  S     3.670734  1.074594  1.296041
  S     3.691851  4.998620  1.122550
  S     3.061875  2.047200  5.276716
  S     2.816183  5.347451  5.046932
