16  
    
  C    -3.885279 -2.260840  1.678611
  C    -3.439441  1.780462  1.606023
  C    -5.124482 -2.478396  0.987775
  C    -4.696597  1.266321  0.963330
  N    -2.850683 -2.118435  0.832637
  N    -2.476122  2.098729  0.757689
  N    -5.136049 -2.274329 -0.333849
  N    -4.576327  1.049584 -0.354688
  N    -5.580120 -2.358301  3.507832
  N    -5.179454  1.589523  3.551554
  S    -6.441344 -2.748572  2.120499
  S    -5.887724  0.962611  2.192338
  S    -3.509917 -2.021161 -0.694204
  S    -3.059415  1.666101 -0.814712
  S    -3.941211 -2.562476  3.331491
  S    -3.639089  2.155997  3.312580
