16  
    
  C     3.275507  1.477858  3.570906
  C     3.119645  5.068226  3.461734
  C     1.937169  1.424710  2.993012
  C     1.881535  4.792457  2.798637
  N     4.337906  1.404864  2.758643
  N     4.204525  5.060557  2.681964
  N     1.983947  1.344480  1.666285
  N     2.035031  4.652458  1.480601
  N     1.623427  1.317036  5.501874
  N     1.411293  5.153544  5.310074
  S     0.656304  1.354578  4.166481
  S     0.551967  4.735839  3.941083
  S     3.582804  1.322595  1.233800
  S     3.670068  4.649653  1.229086
  S     3.266064  1.686757  5.333873
  S     3.066093  5.233669  5.186446
