16  
    
  C    -4.259812 -1.957887  1.768882
  C    -4.153087  1.558617  1.891797
  C    -5.448242 -2.532021  1.208022
  C    -5.358675  0.930517  1.400098
  N    -3.182892 -1.939772  0.959625
  N    -3.195972  1.746238  1.019107
  N    -5.312990 -2.757379 -0.085961
  N    -5.269263  0.542030  0.165732
  N    -6.007193 -2.093655  3.683823
  N    -5.894095  1.766465  3.690326
  S    -6.793109 -2.347016  2.283323
  S    -6.673647  0.939909  2.498075
  S    -3.755916 -2.483444 -0.540415
  S    -3.838480  1.054906 -0.410374
  S    -4.474818 -1.460813  3.526538
  S    -4.305056  2.024463  3.517122
