16  
    
  C    -0.986239 -0.785310  2.245773
  C    -0.750656  2.925395  2.506800
  C    -2.074691 -1.458674  1.666220
  C    -2.045365  2.698418  1.836819
  N     0.070761 -0.673924  1.465958
  N     0.310783  2.993258  1.690205
  N    -1.878829 -1.722368  0.397974
  N    -1.871445  2.374690  0.531340
  N    -2.828410 -0.756125  4.052634
  N    -2.485031  2.752637  4.419102
  S    -3.504197 -1.561349  2.749047
  S    -3.295407  2.415908  2.981632
  S    -0.362869 -1.328996  0.018051
  S    -0.278566  2.767048  0.149495
  S    -1.276255 -0.247936  3.866845
  S    -0.871920  3.274817  4.162339
