16  
    
  C    -2.081653 -0.943176  2.288784
  C    -1.951263  2.248920  2.065417
  C    -3.330022 -1.310337  1.665466
  C    -3.208958  1.936242  1.342431
  N    -1.042619 -0.982749  1.505807
  N    -0.951233  2.363740  1.199504
  N    -3.310494 -1.369675  0.370649
  N    -3.128805  1.804720  0.016463
  N    -3.843822 -1.086140  4.135136
  N    -3.783980  2.390247  3.804791
  S    -4.703189 -1.219385  2.711120
  S    -4.538691  1.787788  2.465224
  S    -1.733971 -1.246947 -0.039271
  S    -1.534783  2.135164 -0.354916
  S    -2.258961 -0.628805  3.990426
  S    -2.140777  2.469609  3.765023
