16  
    
  C    -3.017710 -1.740930  1.908886
  C    -3.424356  1.537377  2.116317
  C    -4.258301 -2.258938  1.351703
  C    -4.658638  1.183245  1.487272
  N    -2.091125 -1.504775  1.013601
  N    -2.336866  1.539260  1.343735
  N    -4.186504 -2.667248  0.065276
  N    -4.537213  0.946534  0.196452
  N    -4.611187 -2.066930  3.917615
  N    -5.265511  1.454216  3.887061
  S    -5.518294 -2.365158  2.557863
  S    -6.038215  1.176864  2.461708
  S    -2.710249 -2.099241 -0.488529
  S    -2.928729  1.103641 -0.159767
  S    -3.046773 -1.507706  3.686156
  S    -3.660338  1.819425  3.803732
