16  
    
  C     2.073900  0.582652  3.206906
  C     2.000408  4.392769  3.000853
  C     0.772837  0.258108  2.678408
  C     0.748588  3.934269  2.445500
  N     3.013286  0.709995  2.307766
  N     3.077550  4.321589  2.173399
  N     0.762411  0.008776  1.382493
  N     0.812929  3.789990  1.099292
  N     0.395710  0.756658  5.074612
  N     0.259546  4.272522  4.990788
  S    -0.494051  0.645410  3.779203
  S    -0.518002  3.953038  3.539653
  S     2.321850  0.365296  0.860781
  S     2.404358  3.940820  0.737686
  S     2.047836  0.885791  4.908421
  S     1.882224  4.796670  4.742104
