16  
    
  C     3.786980  1.880774  3.717209
  C     3.600596  5.351749  3.562269
  C     2.586107  1.558242  2.923634
  C     2.364049  4.916835  2.908871
  N     4.875474  2.171793  3.036887
  N     4.635260  5.630943  2.778211
  N     2.785644  1.426694  1.626205
  N     2.482174  5.033615  1.567066
  N     1.882008  1.780526  5.458475
  N     1.766270  5.217686  5.468106
  S     1.214097  1.631271  3.924676
  S     1.049594  4.904019  4.070740
  S     4.382462  1.938635  1.399464
  S     4.070681  5.371136  1.195281
  S     3.490999  2.281201  5.418064
  S     3.386127  5.429066  5.319490
