16  
    
  C     1.089057  0.272507  3.060236
  C     0.987053  4.260954  2.615529
  C    -0.103495  0.056597  2.310660
  C    -0.037421  3.379100  2.019506
  N     2.253741  0.304356  2.326821
  N     2.041223  4.296654  1.758238
  N     0.118121 -0.108620  1.015274
  N     0.157713  3.133826  0.716928
  N    -0.898004  0.083099  4.863283
  N    -0.874628  4.190052  4.316309
  S    -1.608924  0.157618  3.346054
  S    -1.390843  3.257715  3.021657
  S     1.761015  0.004638  0.777396
  S     1.700865  3.521428  0.384546
  S     0.804816  0.386203  4.806227
  S     0.718795  4.677199  4.323629
