16  
    
  C     0.987399  0.248964  2.924358
  C     0.508969  3.474498  2.834637
  C    -0.168493 -0.175590  2.230579
  C    -0.648994  3.178820  2.034555
  N     2.018234  0.612343  2.178611
  N     1.499054  3.975291  2.111156
  N    -0.079633 -0.120520  0.931652
  N    -0.491087  3.012883  0.731376
  N    -0.792742 -0.235763  4.710501
  N    -1.362515  3.225997  4.518690
  S    -1.505208 -0.467778  3.236219
  S    -1.953959  2.757504  3.093113
  S     1.450843  0.397674  0.614266
  S     1.155923  3.590304  0.515388
  S     0.812924  0.267110  4.612365
  S     0.263553  3.715525  4.523524
