16  
    
  C    -2.885654 -1.807606  1.977625
  C    -2.765896  2.292170  1.961246
  C    -4.051657 -2.329366  1.260914
  C    -4.021075  2.117032  1.215834
  N    -1.773351 -1.684324  1.270202
  N    -1.679246  2.436893  1.213722
  N    -3.819284 -2.306733 -0.041193
  N    -3.807982  1.972168 -0.096582
  N    -4.729909 -2.134878  3.718155
  N    -4.582222  1.885629  3.748925
  S    -5.473467 -2.458519  2.223716
  S    -5.368848  1.653475  2.306551
  S    -2.213265 -1.885760 -0.292089
  S    -2.178775  2.110159 -0.363796
  S    -3.158940 -1.689407  3.681693
  S    -2.993361  2.420640  3.706426
