16  
    
  C     2.371729  1.056592  3.242632
  C     2.938590  5.376624  3.917908
  C     1.228576  0.529782  2.545438
  C     1.709225  4.927318  3.319913
  N     3.425718  1.181451  2.483482
  N     3.984693  5.318402  3.114052
  N     1.452642  0.307061  1.243416
  N     1.807186  4.634479  2.021886
  N     0.552111  1.171362  4.974010
  N     1.174948  5.838785  5.716001
  S    -0.078983  0.388708  3.642465
  S     0.397615  5.004149  4.481639
  S     3.050900  0.769288  1.022037
  S     3.421284  4.863736  1.679161
  S     2.197529  1.311638  4.916403
  S     2.823756  5.916731  5.561888
