16  
    
  C     3.273979  1.616366  3.610194
  C     3.121020  5.045133  3.412489
  C     2.022476  1.129918  3.023194
  C     1.945362  4.546504  2.685595
  N     4.327855  1.621135  2.810885
  N     4.141532  5.433612  2.641896
  N     2.090373  0.844060  1.731055
  N     2.250304  4.287683  1.383627
  N     1.512275  1.472554  5.554414
  N     1.170234  5.039565  5.141027
  S     0.683689  0.970548  4.181410
  S     0.638450  4.149860  3.847979
  S     3.675823  1.076925  1.267413
  S     3.693804  5.002353  1.102165
  S     3.088733  2.040230  5.262082
  S     2.800567  5.347172  5.055685
