16  
    
  C    -0.053702 -0.570717  2.482604
  C    -0.197337  3.417681  2.589786
  C    -1.204512 -1.136534  1.841783
  C    -1.133642  2.496641  2.021055
  N     0.945699 -0.219240  1.640657
  N     0.844345  3.675430  1.776804
  N    -1.159233 -1.189248  0.495702
  N    -0.921973  2.254560  0.744996
  N    -1.778251 -0.929600  4.385900
  N    -1.911852  2.837538  4.451639
  S    -2.541014 -1.302562  2.947732
  S    -2.581513  2.323726  2.955487
  S     0.356378 -0.550160  0.132515
  S     0.412637  3.090381  0.293645
  S    -0.208952 -0.548820  4.253733
  S    -0.407131  3.466431  4.287577
