16  
    
  C     0.882420  0.211615  2.918468
  C     0.522932  3.730537  2.925414
  C    -0.361801 -0.161637  2.278015
  C    -0.822481  3.470859  2.381515
  N     1.853402  0.378019  2.055762
  N     1.493274  3.811659  2.012401
  N    -0.234755 -0.438667  0.975111
  N    -0.833424  3.685177  1.056571
  N    -0.885330  0.130202  4.830335
  N    -1.072426  3.441950  4.945080
  S    -1.675782 -0.181851  3.401403
  S    -2.071320  3.331797  3.577889
  S     1.333681 -0.047533  0.501463
  S     0.683404  3.866759  0.551527
  S     0.723830  0.472008  4.672381
  S     0.511305  3.515317  4.710328
