16  
    
  C    -1.564185 -1.213314  2.703776
  C    -1.697464  2.513294  2.432769
  C    -2.746145 -1.535826  1.890848
  C    -2.939088  2.125705  1.736545
  N    -0.573563 -0.852117  1.936495
  N    -0.667503  2.693404  1.602230
  N    -2.586208 -1.707309  0.596625
  N    -2.802047  2.017296  0.402873
  N    -3.503988 -1.543840  4.456344
  N    -3.561935  2.333795  4.215427
  S    -4.135672 -1.770044  2.902402
  S    -4.384387  2.174964  2.766359
  S    -0.991899 -1.189616  0.348111
  S    -1.227943  2.374255  0.082723
  S    -1.872336 -1.120662  4.429873
  S    -1.937607  2.686647  4.124718
