16  
    
  C     1.314070  0.872766  3.248919
  C     1.108339  4.449598  3.012467
  C     0.081027  0.393814  2.738568
  C     0.004479  3.911694  2.348327
  N     2.291837  0.848862  2.317376
  N     2.175781  4.665426  2.237020
  N     0.103184  0.035959  1.455958
  N     0.165478  3.914171  1.040973
  N    -0.296914  0.828918  5.211054
  N    -0.730654  4.055389  4.821611
  S    -1.139551  0.350063  3.897554
  S    -1.393063  3.639775  3.326667
  S     1.678153  0.240650  0.965802
  S     1.689466  4.384935  0.714093
  S     1.341613  1.206535  4.964628
  S     0.930745  4.392398  4.724227
