16  
    
  C    -4.251883 -1.926531  1.868169
  C    -4.128150  1.631474  1.874428
  C    -5.445637 -2.374210  1.246019
  C    -5.344481  0.990011  1.344367
  N    -3.214251 -1.745233  1.029036
  N    -3.218136  1.693367  0.909815
  N    -5.301595 -2.839899  0.017843
  N    -5.309503  0.579274  0.087954
  N    -6.009389 -2.193350  3.790635
  N    -5.921872  1.773938  3.845627
  S    -6.821594 -2.282539  2.349091
  S    -6.652765  0.954485  2.577031
  S    -3.750890 -2.373007 -0.400084
  S    -3.803310  1.059714 -0.473285
  S    -4.488099 -1.486471  3.517951
  S    -4.248755  1.917124  3.626319
