16  
    
  C    -4.683263 -2.487701  1.686763
  C    -4.850586  1.179230  1.586645
  C    -5.890096 -3.055275  1.184994
  C    -6.010606  0.645621  0.879109
  N    -3.732456 -2.273682  0.758117
  N    -3.814483  1.453893  0.786501
  N    -5.943140 -3.141513 -0.141491
  N    -5.804067  0.256488 -0.379540
  N    -6.306175 -2.741187  3.657300
  N    -6.563710  0.807774  3.366661
  S    -7.253912 -3.044151  2.317154
  S    -7.271941  0.201689  1.973789
  S    -4.475864 -2.614498 -0.684635
  S    -4.232351  0.873816 -0.744951
  S    -4.787086 -2.147254  3.359055
  S    -5.047811  1.346962  3.314456
