16  
    
  C    -4.086163 -2.196150  1.772323
  C    -4.117152  1.372722  1.698792
  C    -5.412514 -2.292461  1.207395
  C    -5.347674  1.192121  0.978218
  N    -3.149136 -2.262849  0.859091
  N    -3.047441  1.227864  0.941337
  N    -5.482472 -2.404751 -0.126020
  N    -5.199723  1.147507 -0.348833
  N    -5.660737 -1.937753  3.794894
  N    -5.961021  1.539366  3.502173
  S    -6.668371 -2.292129  2.487209
  S    -6.725734  1.318351  2.091660
  S    -3.905615 -2.337880 -0.622042
  S    -3.584433  1.138854 -0.630555
  S    -4.036920 -1.883311  3.518154
  S    -4.319942  1.673679  3.418874
