16  
    
  C    -0.204689 -0.392385  2.699185
  C     0.102717  3.337476  2.433581
  C    -1.289099 -0.990553  1.916083
  C    -1.125461  2.970723  1.763396
  N     0.883002 -0.225686  1.973231
  N     1.143395  3.526105  1.673630
  N    -1.134143 -0.938119  0.585449
  N    -0.928517  2.833458  0.467743
  N    -2.090959 -0.741003  4.388966
  N    -1.679849  2.954689  4.241361
  S    -2.642495 -1.391582  2.919566
  S    -2.375194  2.362727  2.834384
  S     0.490483 -0.515987  0.400296
  S     0.606939  3.339360  0.111725
  S    -0.476371 -0.306746  4.461434
  S    -0.148395  3.495048  4.167555
