16  
    
  C     1.385913  0.647244  3.096450
  C     1.039375  4.212428  2.800212
  C     0.143761  0.244436  2.482326
  C    -0.118706  3.758082  2.033378
  N     2.389686  0.859403  2.226414
  N     2.096773  4.600490  2.082871
  N     0.145356  0.113247  1.162042
  N     0.125422  3.617458  0.739952
  N    -0.390881  0.712802  4.947390
  N    -0.872028  3.861129  4.429180
  S    -1.121452  0.159490  3.596781
  S    -1.453212  3.301964  2.989605
  S     1.697910  0.510613  0.732655
  S     1.698780  4.182436  0.490427
  S     1.261702  0.961360  4.817413
  S     0.654934  4.357739  4.471201
