16  
    
  C    -5.736784 -3.079946  1.569212
  C    -6.053694  0.795113  1.368694
  C    -6.888462 -3.452819  0.827016
  C    -7.209564  0.180700  0.710037
  N    -4.658018 -2.952047  0.779553
  N    -5.127166  1.202569  0.492511
  N    -6.683070 -3.628905 -0.471907
  N    -7.221512  0.188106 -0.631020
  N    -7.803282 -3.088025  3.186782
  N    -7.654937  0.258604  3.283237
  S    -8.423535 -3.396308  1.666677
  S    -8.542103 -0.116158  1.916767
  S    -5.131419 -3.260304 -0.769785
  S    -5.805221  0.956767 -1.028851
  S    -6.181896 -3.061870  3.340026
  S    -6.134857  0.836897  3.127691
