16  
    
  C     3.296038  1.507897  3.589122
  C     3.061264  5.169246  3.423766
  C     2.049559  1.049617  3.012373
  C     2.025354  4.365676  2.753979
  N     4.247897  1.561892  2.678737
  N     4.046099  5.484408  2.586430
  N     2.084481  0.819680  1.697274
  N     2.135832  4.344989  1.411392
  N     1.696212  1.442132  5.566324
  N     1.150179  5.048435  5.078134
  S     0.786980  0.971947  4.284306
  S     0.596305  4.147273  3.791572
  S     3.675976  1.174676  1.265666
  S     3.702303  4.988407  1.065437
  S     3.201025  1.973351  5.253533
  S     2.779964  5.398232  5.141499
