16  
    
  C    -0.141973 -0.164246  2.500591
  C    -0.405691  3.418712  2.519583
  C    -1.253478 -0.917324  1.803954
  C    -1.623708  3.008075  1.959666
  N     0.931721 -0.045399  1.741445
  N     0.569991  3.480990  1.628850
  N    -1.037716 -1.084227  0.534252
  N    -1.643939  2.783953  0.636786
  N    -1.959243 -0.646976  4.259591
  N    -1.980924  3.157984  4.571382
  S    -2.658660 -1.175018  2.838042
  S    -2.916533  2.998022  3.158684
  S     0.530233 -0.574055  0.179674
  S    -0.083067  3.148966  0.130527
  S    -0.401168 -0.009428  4.179892
  S    -0.362719  3.397026  4.258296
