16  
    
  C     2.246930  0.944585  3.314059
  C     2.155634  4.461010  2.940594
  C     0.940994  0.617443  2.741736
  C     0.873049  4.169089  2.286194
  N     3.227540  1.070733  2.436474
  N     3.185012  4.646626  2.109149
  N     0.952624  0.493427  1.431198
  N     0.938730  4.041076  0.985892
  N     0.378211  1.016251  5.240181
  N     0.365243  4.421171  4.806228
  S    -0.405641  0.518145  3.808913
  S    -0.371058  3.788246  3.420674
  S     2.550239  0.810087  0.891720
  S     2.565584  4.276443  0.564791
  S     2.039630  1.196198  5.049760
  S     1.972004  4.701412  4.753819
