16  
    
  C    -0.808144 -0.795067  2.370509
  C    -0.812278  3.173250  2.401281
  C    -1.969559 -1.340947  1.703525
  C    -1.998089  2.643496  1.844544
  N     0.206603 -0.466301  1.542231
  N     0.205042  3.220342  1.555036
  N    -1.742289 -1.796537  0.442556
  N    -1.927255  2.408917  0.538773
  N    -2.730160 -0.884962  4.086169
  N    -2.431450  2.774572  4.378266
  S    -3.378236 -1.547206  2.682647
  S    -3.302417  2.598998  2.998613
  S    -0.179193 -1.232074  0.078741
  S    -0.418753  2.878276  0.068765
  S    -1.145812 -0.508680  4.044242
  S    -0.835623  3.255355  4.163715
