16  
    
  C     2.805636  1.601771  3.473404
  C     2.881928  5.220964  3.319857
  C     1.650344  0.938350  2.910768
  C     1.662319  4.679874  2.698759
  N     3.806999  1.685929  2.625076
  N     3.813614  5.524420  2.421721
  N     1.748950  0.588658  1.608940
  N     1.827247  4.280782  1.434586
  N     1.303637  1.234504  5.490418
  N     1.389064  4.677141  5.233067
  S     0.445378  0.628616  4.198114
  S     0.488992  4.203442  3.845435
  S     3.321990  1.076723  1.173046
  S     3.284540  5.025301  0.969992
  S     2.685879  2.041305  5.151293
  S     2.787097  5.512314  4.975958
