16  
    
  C    -1.294246 -0.844919  2.096771
  C    -1.550859  3.152328  1.943605
  C    -2.503792 -1.419694  1.519137
  C    -2.595598  2.361135  1.348307
  N    -0.271967 -0.614199  1.212252
  N    -0.544901  3.539077  1.190960
  N    -2.430841 -1.479970  0.168887
  N    -2.386446  2.112369  0.072731
  N    -3.054950 -1.018399  3.998572
  N    -3.240690  2.661582  3.833630
  S    -3.814864 -1.608117  2.663743
  S    -3.887197  1.988427  2.430904
  S    -0.911332 -0.998072 -0.296554
  S    -0.948821  2.954915 -0.320819
  S    -1.426401 -0.764525  3.843594
  S    -1.759268  3.428912  3.713711
