16  
    
  C     0.720312  0.331489  3.080732
  C     0.576827  3.976885  2.957459
  C    -0.574613  0.220218  2.416609
  C    -0.560677  3.265813  2.387789
  N     1.775865  0.439983  2.239784
  N     1.633913  3.989854  2.169332
  N    -0.472633 -0.034555  1.115526
  N    -0.391929  2.811930  1.172885
  N    -1.092083  0.258676  4.999191
  N    -1.137490  4.004940  4.821754
  S    -1.928184  0.295980  3.575183
  S    -1.840881  3.259937  3.495269
  S     1.138703  0.139029  0.709151
  S     1.123744  3.353668  0.673425
  S     0.548290  0.488840  4.828730
  S     0.429601  4.372936  4.669212
