16  
    
  C    -0.304171 -0.443425  2.359223
  C    -0.409385  3.561591  2.876989
  C    -1.585152 -0.858374  1.791495
  C    -1.601129  3.052137  2.194640
  N     0.676284 -0.091425  1.509403
  N     0.618954  3.702223  2.043088
  N    -1.491810 -1.190310  0.525962
  N    -1.384758  2.694151  0.924888
  N    -2.080874 -0.695114  4.311770
  N    -2.113317  3.188093  4.705389
  S    -2.961337 -1.121849  2.950012
  S    -2.929914  2.926659  3.292329
  S     0.103454 -0.705003  0.037429
  S     0.149154  3.243837  0.546708
  S    -0.448648 -0.334912  4.084353
  S    -0.555823  3.756202  4.584283
