16  
    
  C     1.577103  0.661397  2.814529
  C     0.871851  3.944583  2.500019
  C     0.352355  0.179098  2.253652
  C    -0.338994  3.267109  1.857003
  N     2.611078  0.831189  2.006891
  N     1.927208  4.077258  1.693091
  N     0.459476  0.003519  0.934200
  N    -0.280065  3.276307  0.533678
  N    -0.172412  0.635820  4.721062
  N    -0.831752  3.608801  4.417419
  S    -0.978395  0.057491  3.345529
  S    -1.620346  3.190974  3.011231
  S     2.023228  0.398228  0.497133
  S     1.320279  3.662582  0.139163
  S     1.508212  1.089645  4.472653
  S     0.762359  4.186245  4.264169
