16  
    
  C    -2.598787 -1.253233  2.186949
  C    -2.587922  2.400360  2.307676
  C    -3.829580 -1.722496  1.546505
  C    -3.728067  1.765976  1.650462
  N    -1.595008 -1.103827  1.360208
  N    -1.614973  2.863264  1.516238
  N    -3.741867 -1.900607  0.260312
  N    -3.604137  1.811566  0.345052
  N    -4.405356 -1.670103  4.032382
  N    -4.369103  2.006089  4.165896
  S    -5.115902 -2.013417  2.576818
  S    -5.046328  1.500342  2.731439
  S    -2.173217 -1.485981 -0.143508
  S    -2.181603  2.546558 -0.062634
  S    -2.783368 -1.167593  3.929046
  S    -2.773419  2.475245  4.058839
