16  
    
  C    -4.213996 -2.548895  1.575750
  C    -4.288671  1.626993  1.970720
  C    -5.477363 -2.978988  0.962675
  C    -5.363733  0.938334  1.388485
  N    -3.237989 -2.314131  0.696903
  N    -3.176850  1.752375  1.244923
  N    -5.295381 -3.282424 -0.330039
  N    -5.164466  0.684710  0.075211
  N    -5.971454 -2.554542  3.481288
  N    -6.242049  1.591098  3.768775
  S    -6.776988 -2.867974  2.059448
  S    -6.847741  0.981193  2.352647
  S    -3.789859 -2.824212 -0.772123
  S    -3.626704  1.143881 -0.307613
  S    -4.329364 -2.048876  3.269532
  S    -4.626605  1.953810  3.631814
