16  
    
  C    -0.487260 -0.487981  2.679440
  C    -0.333665  3.319178  2.631686
  C    -1.735706 -0.704520  1.940480
  C    -1.434046  2.611667  2.062667
  N     0.540555 -0.359245  1.810799
  N     0.741568  3.438348  1.846798
  N    -1.588418 -0.843468  0.600632
  N    -1.375727  2.461018  0.752433
  N    -2.367619 -0.586751  4.460515
  N    -2.174530  3.160105  4.432083
  S    -2.997925 -0.999015  2.989636
  S    -2.779270  2.377307  3.139313
  S    -0.035452 -0.536727  0.294706
  S     0.209640  2.768915  0.372998
  S    -0.758124 -0.051758  4.368194
  S    -0.659573  3.755624  4.323658
