16  
    
  C     2.510687  1.083485  3.314649
  C     3.000617  5.406855  3.919819
  C     1.341405  0.613662  2.641508
  C     1.757628  4.927708  3.371307
  N     3.580928  1.166733  2.509085
  N     3.960020  5.552350  2.980643
  N     1.499069  0.429887  1.330897
  N     1.866897  4.464694  2.137202
  N     0.458521  1.119486  5.014734
  N     1.146187  5.567227  5.713577
  S    -0.139077  0.449779  3.555365
  S     0.414792  4.830356  4.449623
  S     3.074242  0.753084  0.981467
  S     3.397641  4.757654  1.652392
  S     2.127268  1.372078  5.051697
  S     2.759461  5.812089  5.630220
