16  
    
  C    -0.330893 -0.302485  2.361548
  C    -0.352155  3.427288  2.816045
  C    -1.492274 -0.957654  1.788127
  C    -1.598056  3.083912  2.167796
  N     0.693941 -0.193819  1.530341
  N     0.666135  3.702900  2.012641
  N    -1.356225 -1.132790  0.462827
  N    -1.460154  2.844331  0.873958
  N    -1.975291 -0.641888  4.300376
  N    -2.126728  3.176839  4.751715
  S    -2.799492 -1.161874  2.948388
  S    -2.952396  2.906516  3.270200
  S     0.150956 -0.699988  0.042882
  S     0.128548  3.236925  0.487700
  S    -0.400213 -0.276076  4.095464
  S    -0.516864  3.776719  4.515048
