16  
    
  C     3.022582  1.429889  3.374667
  C     3.087997  5.067834  3.365540
  C     1.803715  1.149354  2.663468
  C     1.886720  4.816963  2.605689
  N     4.053327  1.591134  2.572836
  N     4.157937  5.139921  2.582689
  N     1.914893  1.075809  1.334279
  N     2.075305  4.483521  1.315797
  N     1.267483  1.561869  5.141452
  N     1.132006  5.054337  5.076450
  S     0.399054  1.172139  3.767754
  S     0.450298  4.634773  3.602254
  S     3.499186  1.433714  0.967082
  S     3.639545  4.833545  0.968317
  S     2.922643  1.642308  5.077466
  S     2.778293  5.258222  5.112321
