16  
    
  C    -4.293991 -1.761045  1.893300
  C    -4.187292  1.537775  1.856794
  C    -5.502377 -2.402064  1.338591
  C    -5.436772  1.109147  1.333580
  N    -3.232456 -1.726429  1.109149
  N    -3.180722  1.693443  0.965961
  N    -5.277744 -2.758831  0.055741
  N    -5.291101  0.667936  0.057100
  N    -5.977061 -2.204335  3.755422
  N    -5.844736  1.678822  3.845198
  S    -6.880002 -2.303439  2.384374
  S    -6.644290  0.953469  2.582568
  S    -3.765850 -2.347867 -0.348120
  S    -3.803957  1.038947 -0.497888
  S    -4.424725 -1.513729  3.603034
  S    -4.230350  1.888900  3.669405
