16  
    
  C    -0.247555 -0.384706  2.407154
  C    -0.354112  3.482998  2.754665
  C    -1.466652 -0.904159  1.740177
  C    -1.550114  2.969652  2.150300
  N     0.756920 -0.245249  1.558215
  N     0.687976  3.562741  1.932410
  N    -1.348173 -1.141356  0.428100
  N    -1.522140  3.040876  0.816025
  N    -1.962675 -0.611723  4.294779
  N    -2.085758  3.218097  4.632213
  S    -2.615920 -1.222481  2.901629
  S    -2.910045  2.901484  3.280769
  S     0.226970 -0.668796  0.050001
  S     0.060760  3.228299  0.407305
  S    -0.329119 -0.159506  4.137229
  S    -0.542787  3.747883  4.480085
