16  
    
  C    -2.983477 -1.841372  2.192803
  C    -3.330028  1.723423  2.003689
  C    -4.302586 -1.782383  1.577073
  C    -4.605121  1.283833  1.492934
  N    -1.902979 -1.828676  1.416770
  N    -2.346452  1.876317  1.105262
  N    -4.233113 -1.969175  0.257870
  N    -4.670083  1.282108  0.169724
  N    -4.724500 -1.954485  4.137645
  N    -4.931200  1.429154  4.036798
  S    -5.583916 -1.994851  2.701074
  S    -5.831168  1.095367  2.719763
  S    -2.623298 -1.941508 -0.124074
  S    -3.139057  1.654178 -0.398000
  S    -3.112368 -1.660709  3.928422
  S    -3.350927  1.841657  3.804891
