16  
    
  C    -2.884226 -1.717358  1.991949
  C    -2.632304  2.127490  2.019935
  C    -4.079382 -2.151596  1.248863
  C    -3.854444  1.873846  1.342787
  N    -1.826261 -1.417215  1.224149
  N    -1.567283  2.192181  1.224841
  N    -3.827462 -2.356750 -0.036253
  N    -3.775100  1.812837  0.004071
  N    -4.782211 -2.246258  3.690357
  N    -4.477935  1.965653  3.806082
  S    -5.437308 -2.547893  2.220892
  S    -5.244015  1.880925  2.352417
  S    -2.301031 -1.867228 -0.327352
  S    -2.220278  2.100237 -0.348341
  S    -3.208858 -1.691799  3.744949
  S    -2.891937  2.451502  3.734537
