16  
    
  C    -5.787223 -2.714346  1.324729
  C    -5.563328  0.784952  1.544836
  C    -7.056622 -2.991837  0.665881
  C    -6.773577  0.400349  0.810265
  N    -4.778191 -2.513215  0.479697
  N    -4.517789  0.870498  0.745393
  N    -6.842950 -3.193651 -0.649205
  N    -6.691654  0.271777 -0.503895
  N    -7.517547 -3.148184  3.159165
  N    -7.437100  0.546836  3.323372
  S    -8.377135 -3.414966  1.761459
  S    -8.209729  0.298621  1.878418
  S    -5.288807 -2.810252 -1.028895
  S    -5.067853  0.580421 -0.821807
  S    -5.955587 -2.499264  3.054187
  S    -5.838218  1.118779  3.286188
