16  
    
  C    -4.162336 -2.310537  1.572521
  C    -4.304039  1.677657  1.933452
  C    -5.433133 -2.871929  1.071056
  C    -5.440497  1.130992  1.225028
  N    -3.126244 -2.335024  0.749179
  N    -3.223404  1.734181  1.182376
  N    -5.355173 -3.146183 -0.225575
  N    -5.163321  0.667566  0.026581
  N    -5.941929 -2.316171  3.478352
  N    -6.119295  1.521177  3.660823
  S    -6.767863 -2.740258  2.123454
  S    -6.842702  0.991543  2.288796
  S    -3.832394 -2.801146 -0.699284
  S    -3.616513  1.014905 -0.248988
  S    -4.327485 -1.947623  3.286510
  S    -4.541888  2.100106  3.652959
