16  
    
  C    -4.580852 -2.177944  1.481698
  C    -4.400000  1.330137  1.909700
  C    -5.644506 -2.863979  0.766083
  C    -5.605589  0.783617  1.349756
  N    -3.517788 -1.809441  0.754595
  N    -3.530986  1.781407  1.039030
  N    -5.419011 -2.849838 -0.568905
  N    -5.615190  0.689297  0.017040
  N    -6.413167 -2.974934  3.203627
  N    -5.918943  0.862727  3.886358
  S    -7.023599 -3.284596  1.706800
  S    -6.793833  0.434773  2.538503
  S    -3.903627 -2.185169 -0.813205
  S    -4.116220  1.471671 -0.482494
  S    -4.850940 -2.436517  3.216941
  S    -4.422779  1.535077  3.724355
