16  
    
  C    -2.971786 -1.669256  1.952835
  C    -2.598010  2.108837  2.000066
  C    -4.134458 -2.130532  1.254065
  C    -3.833287  1.731627  1.386356
  N    -1.907855 -1.279094  1.229674
  N    -1.549822  2.155621  1.185079
  N    -3.862213 -2.306563 -0.052963
  N    -3.735130  1.660834  0.066370
  N    -4.740894 -2.234717  3.767521
  N    -4.345084  2.172136  3.913250
  S    -5.440899 -2.621933  2.338463
  S    -5.205468  2.046983  2.459511
  S    -2.329255 -1.737825 -0.327146
  S    -2.131327  1.898898 -0.342834
  S    -3.143842 -1.637869  3.689185
  S    -2.657582  2.377749  3.727848
