16  
    
  C     1.444884  0.743164  2.925338
  C     0.891366  4.096871  2.556524
  C     0.260078  0.285255  2.245678
  C    -0.240852  3.434519  1.842555
  N     2.463285  1.034286  2.111132
  N     1.917584  4.394781  1.768904
  N     0.309788  0.248457  0.913955
  N    -0.110549  3.255379  0.513472
  N    -0.172438  0.170549  4.766870
  N    -0.895518  3.733986  4.399693
  S    -1.041256  0.070360  3.382106
  S    -1.557321  3.144021  2.934469
  S     1.883435  0.673164  0.562681
  S     1.476695  3.763057  0.235882
  S     1.380500  0.778865  4.607432
  S     0.656735  4.336345  4.242375
