16  
    
  C    -4.345144 -2.407075  1.526313
  C    -4.336481  1.572598  1.979112
  C    -5.485603 -2.891888  0.781787
  C    -5.571556  1.105420  1.369652
  N    -3.277703 -2.276609  0.728417
  N    -3.370985  1.798766  1.100488
  N    -5.369613 -2.916787 -0.523698
  N    -5.480881  0.774092  0.064144
  N    -6.175479 -2.693935  3.236699
  N    -6.017270  1.198959  3.917071
  S    -6.821174 -3.325121  1.844095
  S    -6.842013  0.693941  2.557814
  S    -3.746923 -2.618667 -0.821762
  S    -3.868402  1.240638 -0.409959
  S    -4.558445 -2.287111  3.292664
  S    -4.521625  1.809753  3.690752
