16  
    
  C    -1.482053 -0.941322  2.229229
  C    -1.740258  2.398321  2.048985
  C    -2.767382 -1.287516  1.597171
  C    -3.030684  2.135359  1.432297
  N    -0.491054 -1.101996  1.401219
  N    -0.774717  2.605216  1.144594
  N    -2.720578 -1.583714  0.327439
  N    -2.997135  1.919039  0.100421
  N    -3.179628 -1.039377  4.118451
  N    -3.425493  2.085092  3.985956
  S    -4.054760 -1.203249  2.755912
  S    -4.338215  1.872140  2.619195
  S    -1.124757 -1.482518 -0.095120
  S    -1.417654  2.133213 -0.355910
  S    -1.534919 -0.927592  3.936827
  S    -1.828360  2.602668  3.727463
