16  
    
  C     2.657244  1.090534  3.186298
  C     2.567780  4.984778  3.561387
  C     1.402007  0.736433  2.531513
  C     1.424675  4.275303  3.080500
  N     3.707125  1.156779  2.381585
  N     3.497937  5.246848  2.635736
  N     1.570817  0.541803  1.224846
  N     1.564167  3.947131  1.789518
  N     0.754234  1.033584  4.887434
  N     0.874117  4.708233  5.544662
  S     0.053759  0.345405  3.563274
  S     0.051760  4.247024  4.091973
  S     3.144419  0.772227  0.859588
  S     2.905838  4.678318  1.224795
  S     2.371127  1.326350  4.925813
  S     2.490886  5.303459  5.296040
