16  
    
  C    -4.263228 -1.831205  2.039221
  C    -4.143998  1.422630  1.936630
  C    -5.467338 -2.254340  1.417343
  C    -5.432638  1.199550  1.317487
  N    -3.242687 -1.814678  1.209665
  N    -3.109543  1.471799  1.107121
  N    -5.430669 -2.471478  0.083227
  N    -5.340941  0.943016  0.017668
  N    -6.030302 -2.026546  3.984600
  N    -5.834932  1.390388  3.833928
  S    -6.789263 -2.439775  2.587158
  S    -6.720261  1.000591  2.466620
  S    -3.854652 -2.294952 -0.305448
  S    -3.799477  1.122628 -0.412173
  S    -4.427015 -1.694272  3.743568
  S    -4.228116  1.764409  3.599387
