16  
    
  C     0.633251  0.339337  3.116630
  C     0.738575  3.982903  2.959159
  C    -0.621304  0.100642  2.471875
  C    -0.462695  3.405308  2.382262
  N     1.675874  0.232820  2.303921
  N     1.758340  4.032424  2.110965
  N    -0.529185  0.063210  1.170595
  N    -0.362033  3.144903  1.100172
  N    -1.103154  0.206604  4.937724
  N    -1.154332  3.840259  4.800688
  S    -1.925962  0.257624  3.531045
  S    -1.846294  3.176491  3.466943
  S     1.034149  0.110909  0.780397
  S     1.175578  3.368679  0.688521
  S     0.560504  0.502523  4.815445
  S     0.467003  4.387762  4.623668
