16  
    
  C     2.427782  1.100492  3.357782
  C     2.835984  5.407170  3.866120
  C     1.312932  0.648789  2.565881
  C     1.723485  4.668775  3.362216
  N     3.558042  1.236849  2.694972
  N     3.861438  5.516685  3.042983
  N     1.543463  0.354417  1.278713
  N     1.831879  4.274562  2.106019
  N     0.520577  0.969669  4.980251
  N     1.194681  5.327180  5.818077
  S    -0.062337  0.506590  3.592620
  S     0.396393  4.781708  4.405991
  S     3.157022  0.778017  1.087245
  S     3.374099  4.752818  1.635711
  S     2.124983  1.387193  5.023289
  S     2.821517  5.733873  5.535024
