16  
    
  C    -4.197688 -2.170555  2.126805
  C    -4.181343  1.428534  1.889054
  C    -5.518017 -2.317036  1.474656
  C    -5.388141  1.106383  1.255667
  N    -3.248030 -2.029210  1.190349
  N    -3.111014  1.388241  1.064197
  N    -5.516237 -2.438685  0.135181
  N    -5.306119  1.048433 -0.099679
  N    -5.944485 -1.973737  3.980116
  N    -5.980048  1.404205  3.851799
  S    -6.834565 -2.491382  2.647507
  S    -6.757314  1.110090  2.372398
  S    -3.952708 -2.170816 -0.279140
  S    -3.706656  1.191698 -0.455673
  S    -4.245111 -1.784510  3.789209
  S    -4.348984  1.637284  3.682087
