16  
    
  C    -3.782135 -2.418752  1.604241
  C    -3.342995  1.645436  1.623951
  C    -5.105735 -2.438905  0.992719
  C    -4.509349  1.148614  1.006498
  N    -2.747760 -2.304115  0.760190
  N    -2.356896  1.932667  0.775418
  N    -5.044948 -2.123429 -0.307641
  N    -4.492247  0.863022 -0.306312
  N    -5.599068 -2.681177  3.521521
  N    -5.074396  1.470302  3.516908
  S    -6.447449 -2.733455  2.087205
  S    -5.866871  0.945358  2.107035
  S    -3.430521 -2.075626 -0.767278
  S    -2.994408  1.439142 -0.756068
  S    -3.925690 -2.597857  3.348638
  S    -3.575700  2.172860  3.204139
