16  
    
  C     3.121690  1.592637  3.714076
  C     3.151027  5.228065  3.406173
  C     1.958998  1.106549  3.034430
  C     1.956318  4.671042  2.736841
  N     4.183184  1.826717  2.980487
  N     4.272383  5.179576  2.694936
  N     2.188816  0.814935  1.762759
  N     2.165378  4.474222  1.419899
  N     1.309905  1.656106  5.477962
  N     1.357145  4.910801  5.233612
  S     0.580607  1.143068  4.103227
  S     0.635863  4.470868  3.826267
  S     3.750691  1.300816  1.417774
  S     3.752458  4.820463  1.112025
  S     2.935691  1.821819  5.404471
  S     2.978689  5.264096  5.089202
