16  
    
  C     3.180594  1.637276  3.705823
  C     3.152342  5.172079  3.436695
  C     2.009181  1.140594  3.025460
  C     2.051367  4.580099  2.737084
  N     4.206587  1.717671  2.873917
  N     4.190968  5.372455  2.633596
  N     2.139274  0.788759  1.747201
  N     2.147013  4.438464  1.424791
  N     1.399460  1.452709  5.483409
  N     1.345434  4.754321  5.171725
  S     0.652754  1.073480  4.074504
  S     0.640219  4.263413  3.720006
  S     3.714720  1.125599  1.350849
  S     3.695824  4.856379  1.069789
  S     2.953605  2.049700  5.349474
  S     2.903093  5.376419  5.160911
