16  
    
  C    -1.276643 -0.895657  2.157899
  C    -1.493035  2.979389  2.026486
  C    -2.468108 -1.293194  1.529827
  C    -2.579303  2.315258  1.336411
  N    -0.262188 -0.706140  1.343831
  N    -0.588382  3.407158  1.182669
  N    -2.405462 -1.446786  0.214241
  N    -2.395862  2.145622  0.038581
  N    -3.141103 -1.062093  4.008564
  N    -3.280674  2.593430  3.801840
  S    -3.851062 -1.664865  2.574005
  S    -3.874553  1.867671  2.439996
  S    -0.856757 -0.987052 -0.195211
  S    -0.942008  2.824099 -0.330813
  S    -1.481277 -0.778259  3.862279
  S    -1.849022  3.407407  3.689460
