16  
    
  C    -4.690547 -2.500871  1.672761
  C    -4.867260  1.218436  1.567637
  C    -5.914561 -3.117474  1.167169
  C    -6.008112  0.669083  0.823311
  N    -3.732764 -2.287117  0.747373
  N    -3.802876  1.449648  0.767049
  N    -5.963282 -3.151526 -0.157510
  N    -5.801430  0.294329 -0.439309
  N    -6.303589 -2.766870  3.680334
  N    -6.573033  0.779662  3.372572
  S    -7.246836 -3.019246  2.308184
  S    -7.249126  0.237023  1.941627
  S    -4.458335 -2.640791 -0.700433
  S    -4.240296  0.865151 -0.738140
  S    -4.780796 -2.153514  3.343271
  S    -5.007812  1.317980  3.286540
