16  
    
  C    -5.398385 -2.820369  1.464558
  C    -5.509316  1.086969  1.333825
  C    -6.579446 -3.373770  0.847259
  C    -6.671437  0.627702  0.669076
  N    -4.347622 -2.654874  0.698377
  N    -4.500162  1.386338  0.501382
  N    -6.499487 -3.340907 -0.498466
  N    -6.458620  0.442014 -0.641942
  N    -7.120904 -2.966568  3.363344
  N    -7.343055  0.652612  3.146870
  S    -7.814088 -3.591570  1.995561
  S    -7.926022  0.020063  1.693154
  S    -4.937284 -2.914198 -0.821723
  S    -4.970638  0.975323 -0.989592
  S    -5.468035 -2.672543  3.147723
  S    -5.728090  1.113969  2.995831
