16  
    
  C    -3.008892 -1.826726  2.191878
  C    -3.312691  1.648018  2.064381
  C    -4.277148 -1.906422  1.532474
  C    -4.580463  1.254633  1.535120
  N    -1.991723 -1.933239  1.347143
  N    -2.406311  1.802508  1.108543
  N    -4.230651 -1.994222  0.202944
  N    -4.667173  1.259945  0.209027
  N    -4.685558 -1.965409  4.133909
  N    -4.963727  1.530057  4.028564
  S    -5.560059 -2.064255  2.713486
  S    -5.829848  1.115251  2.691145
  S    -2.588095 -1.963964 -0.194828
  S    -3.130221  1.567281 -0.305524
  S    -3.066689 -1.644706  3.895538
  S    -3.376550  1.784537  3.720368
