16  
    
  C     2.841243  1.602476  3.458250
  C     2.871255  5.286328  3.235881
  C     1.666049  0.940610  2.886290
  C     1.764152  4.526537  2.735719
  N     3.892036  1.751994  2.613567
  N     3.836424  5.544858  2.345246
  N     1.820475  0.611207  1.616878
  N     1.828654  4.333191  1.434996
  N     1.200806  1.297286  5.444382
  N     1.364232  4.617955  5.176695
  S     0.480772  0.632184  4.121052
  S     0.502495  4.180437  3.862081
  S     3.291406  1.102407  1.097888
  S     3.249121  4.908519  0.895928
  S     2.719197  2.005269  5.192114
  S     2.784474  5.521864  4.985554
