16  
    
  C    -4.678545 -2.804178  1.489248
  C    -4.678425  1.033563  1.435889
  C    -5.988304 -3.052910  0.939412
  C    -5.934654  0.926106  0.689407
  N    -3.678886 -2.668487  0.638657
  N    -3.615867  1.111712  0.661916
  N    -6.016819 -3.079312 -0.370233
  N    -5.802980  0.713525 -0.641293
  N    -6.391520 -2.710196  3.406753
  N    -6.458390  0.751574  3.265413
  S    -7.298173 -2.949134  2.068552
  S    -7.220303  0.692637  1.879154
  S    -4.431026 -2.785166 -0.833443
  S    -4.141053  0.931100 -0.896554
  S    -4.772646 -2.477951  3.177977
  S    -4.838999  0.942057  3.232212
