16  
    
  C     3.325239  1.551802  3.352933
  C     3.105247  5.023047  3.450265
  C     2.023715  1.438421  2.774113
  C     1.814237  4.790662  2.826137
  N     4.263780  1.402113  2.424081
  N     4.127447  5.125849  2.613811
  N     1.987854  1.265488  1.455177
  N     1.950673  4.347398  1.559182
  N     1.585062  1.700631  5.303203
  N     1.392697  5.010871  5.394334
  S     0.736581  1.632225  3.880829
  S     0.529211  4.586832  4.048624
  S     3.569483  1.244412  0.931417
  S     3.545938  4.717760  1.058211
  S     3.272416  1.912424  5.095345
  S     3.061967  5.306868  5.178791
