16  
    
  C     1.474768  0.915500  3.415989
  C     1.321646  4.614616  3.260106
  C     0.227148  0.562275  2.827843
  C     0.063935  4.168813  2.779026
  N     2.513757  0.838269  2.578149
  N     2.200252  4.874060  2.308332
  N     0.252823  0.215509  1.563113
  N    -0.077231  3.957075  1.445599
  N    -0.302640  0.914374  5.394323
  N    -0.155515  4.319911  5.396253
  S    -1.049341  0.440435  4.000320
  S    -1.096231  4.080072  4.110824
  S     1.834181  0.341008  1.115019
  S     1.430907  4.296452  0.916533
  S     1.353167  1.260652  5.096745
  S     1.444621  4.652693  5.033852
