16  
    
  C     1.455547  1.017608  3.317428
  C     1.438270  4.461991  3.361215
  C     0.207223  0.613673  2.740901
  C     0.088227  4.130699  2.897401
  N     2.500038  0.983517  2.495178
  N     2.393022  4.514688  2.446294
  N     0.318575  0.267585  1.494049
  N     0.053280  3.927640  1.568096
  N    -0.285897  0.805938  5.296075
  N    -0.085239  4.632380  5.444960
  S    -1.097793  0.490875  3.894423
  S    -1.076732  4.156795  4.184869
  S     1.899730  0.450454  1.064262
  S     1.546871  4.269490  1.055836
  S     1.374893  1.324191  4.996885
  S     1.559273  4.757951  5.107179
