16  
    
  C    -0.057791  0.023139  2.585346
  C    -0.038184  3.591104  2.568184
  C    -1.295638 -0.503026  2.028150
  C    -1.198751  3.048723  1.911123
  N     0.874551  0.273707  1.697685
  N     0.968657  3.813301  1.727292
  N    -1.243494 -0.748506  0.727369
  N    -0.978262  2.546729  0.679382
  N    -1.602395 -0.428294  4.641187
  N    -1.748598  3.473372  4.443477
  S    -2.494944 -0.815841  3.309079
  S    -2.455206  2.689033  3.069431
  S     0.273904 -0.253546  0.202272
  S     0.541212  3.193109  0.248790
  S    -0.120575  0.261582  4.344151
  S    -0.241834  4.085407  4.218323
