16  
    
  C    -5.823537 -3.095623  1.536119
  C    -6.152580  0.935841  1.418174
  C    -7.004051 -3.354468  0.751452
  C    -7.273560  0.184567  0.864397
  N    -4.654823 -2.992139  0.898880
  N    -5.270287  1.311068  0.537661
  N    -6.729175 -3.596811 -0.524096
  N    -7.321524  0.124679 -0.444054
  N    -7.643743 -3.375064  3.283454
  N    -7.563314  0.238657  3.372320
  S    -8.382788 -3.659994  1.849916
  S    -8.334416 -0.391441  2.051642
  S    -5.062248 -3.312829 -0.677995
  S    -5.885401  0.849491 -0.966099
  S    -6.031487 -2.855849  3.206465
  S    -6.053069  0.949979  3.162507
