16  
    
  C     1.402144  0.911461  3.278320
  C     1.232642  4.447782  3.102476
  C     0.121458  0.425798  2.770680
  C    -0.027808  3.997424  2.425286
  N     2.384812  0.919699  2.356622
  N     2.245193  4.593245  2.288150
  N     0.137013 -0.040935  1.523589
  N     0.058469  3.930652  1.110867
  N    -0.280779  0.923287  5.327236
  N    -0.590515  4.156572  4.857110
  S    -1.198015  0.385219  3.935391
  S    -1.398012  3.649017  3.440118
  S     1.677727  0.214181  0.951374
  S     1.610178  4.430870  0.700391
  S     1.360308  1.197498  5.032039
  S     0.997859  4.457421  4.814165
