16  
    
  C     2.979460  1.555720  3.442898
  C     2.996433  5.127673  3.251599
  C     1.743164  1.294940  2.723073
  C     1.767690  4.694615  2.564788
  N     3.992243  1.603295  2.590331
  N     4.014661  5.140278  2.418414
  N     1.785880  1.204026  1.407649
  N     1.890097  4.376615  1.294167
  N     1.225608  0.939385  5.235300
  N     1.133419  4.965429  5.079599
  S     0.401014  0.848707  3.755436
  S     0.430028  4.444624  3.645363
  S     3.405070  1.394515  1.057002
  S     3.487837  4.791740  0.904003
  S     2.813171  1.606081  5.198221
  S     2.776643  5.380234  4.969064
