16  
    
  C     0.905075  0.375872  2.852683
  C     0.614997  3.551795  2.781629
  C    -0.275330 -0.171156  2.224597
  C    -0.694245  3.348473  2.113147
  N     1.943247  0.588933  2.001139
  N     1.627106  3.661038  1.920661
  N    -0.211814 -0.187897  0.885295
  N    -0.640462  3.256846  0.789849
  N    -0.835195 -0.079308  4.802982
  N    -1.231990  3.267856  4.599429
  S    -1.554831 -0.555316  3.380177
  S    -1.967729  2.860462  3.188877
  S     1.354720  0.292604  0.449495
  S     0.968694  3.639667  0.360798
  S     0.728739  0.424635  4.594408
  S     0.449317  3.579775  4.468080
