16  
    
  C     2.008518  1.026594  3.187533
  C     2.136152  4.449805  2.936311
  C     0.792219  0.687685  2.536930
  C     0.957419  3.895344  2.313080
  N     3.066906  1.114635  2.392429
  N     3.258218  4.542167  2.225980
  N     0.853751  0.609583  1.223965
  N     1.160440  3.627572  1.021533
  N     0.367691  0.875201  5.138412
  N     0.427580  4.219793  4.751847
  S    -0.465794  0.440333  3.659931
  S    -0.420682  3.897490  3.358334
  S     2.533237  0.835286  0.852910
  S     2.757229  4.154448  0.665660
  S     1.939316  1.436097  4.834922
  S     1.987705  4.558821  4.688558
