16  
    
  C    -4.728436 -2.429100  1.451641
  C    -4.564534  1.007243  1.573058
  C    -5.991447 -2.765679  0.856386
  C    -5.847532  0.885511  0.905215
  N    -3.707162 -2.315871  0.617210
  N    -3.498211  1.210426  0.792449
  N    -5.942607 -2.962740 -0.440361
  N    -5.705828  0.843032 -0.422015
  N    -6.446470 -2.694050  3.403816
  N    -6.311090  0.726035  3.377364
  S    -7.308266 -3.039005  2.047016
  S    -7.179653  0.574213  1.993906
  S    -4.343845 -2.632000 -0.920704
  S    -4.144588  1.037388 -0.719616
  S    -4.814944 -2.528719  3.237776
  S    -4.706044  0.942384  3.321008
