16  
    
  C     2.307516  1.025879  3.501022
  C     2.044792  4.903529  3.194101
  C     1.010081  0.653133  2.957098
  C     0.878413  4.519329  2.456557
  N     3.271176  1.130293  2.558630
  N     3.083524  5.216617  2.431091
  N     1.058637  0.339065  1.676288
  N     1.098052  4.544690  1.163316
  N     0.611877  0.861542  5.453944
  N     0.107716  4.515871  4.841603
  S    -0.324968  0.691453  4.059008
  S    -0.547292  4.182691  3.321778
  S     2.526467  0.628854  1.148528
  S     2.649472  4.929263  0.857318
  S     2.236493  1.139586  5.269991
  S     1.660302  5.229766  4.911252
