16  
    
  C    -2.020249 -1.024943  2.005807
  C    -2.622298  2.678688  2.040335
  C    -3.196473 -1.661159  1.440301
  C    -3.823087  2.074244  1.497079
  N    -1.040602 -0.776263  1.111370
  N    -1.620074  2.756859  1.168011
  N    -3.044638 -1.937282  0.142334
  N    -3.750997  1.852376  0.196519
  N    -3.548501 -1.877921  3.988444
  N    -4.316214  2.491751  4.006370
  S    -4.356646 -2.166794  2.568029
  S    -5.096040  1.889196  2.645746
  S    -1.620324 -1.292406 -0.384506
  S    -2.167532  2.146025 -0.224455
  S    -2.211657 -0.888798  3.782100
  S    -2.704058  2.868632  3.817702
