16  
    
  C     1.768676  0.631904  3.248507
  C     2.082731  4.559789  3.330127
  C     0.632255  0.165886  2.434071
  C     0.832742  4.052053  2.712165
  N     2.817449  0.956773  2.533436
  N     2.969233  4.972047  2.454194
  N     0.836010  0.156222  1.117959
  N     0.870762  3.984206  1.415978
  N    -0.253323  0.151845  4.933058
  N     0.393901  4.044814  5.206801
  S    -0.728706 -0.340241  3.417180
  S    -0.492506  3.662334  3.785737
  S     2.412931  0.677473  0.914415
  S     2.417292  4.506154  0.884149
  S     1.439211  0.659698  4.989227
  S     1.895881  4.643575  5.025172
