16  
    
  C     1.425905  0.764650  3.451812
  C     1.293489  4.468203  3.191032
  C     0.185137  0.295480  2.898829
  C    -0.079258  4.242054  2.639948
  N     2.384262  0.855344  2.543029
  N     2.241331  4.711845  2.254445
  N     0.249322 -0.011780  1.580227
  N    -0.019828  3.981883  1.331415
  N    -0.246697  0.944745  5.318379
  N    -0.262997  4.164252  5.175913
  S    -1.148875  0.504609  4.023368
  S    -1.283677  3.874766  3.942817
  S     1.790344  0.363425  1.094938
  S     1.456704  4.405485  0.840098
  S     1.435457  1.246486  5.112485
  S     1.311430  4.654561  4.896321
