16  
    
  C     1.026743  0.132501  2.989279
  C     0.988994  3.981052  2.717622
  C    -0.299477 -0.104753  2.394497
  C    -0.230506  3.414457  2.202414
  N     2.031831  0.234831  2.121646
  N     1.948605  4.200805  1.764691
  N    -0.243502 -0.122309  1.090136
  N    -0.161498  2.834168  0.995127
  N    -0.658768 -0.156681  4.972242
  N    -0.682755  4.371641  4.588612
  S    -1.578853 -0.295154  3.580139
  S    -1.440031  3.411414  3.395002
  S     1.342199  0.023331  0.562254
  S     1.385076  3.258835  0.429638
  S     0.919954  0.161792  4.708132
  S     0.888261  4.751308  4.322801
