16  
    
  C    -4.690548 -2.782186  1.492119
  C    -4.680011  1.042259  1.441324
  C    -6.000839 -3.065590  0.934881
  C    -5.935428  0.944553  0.689029
  N    -3.678085 -2.655347  0.638999
  N    -3.609808  1.123448  0.657779
  N    -6.016266 -3.063769 -0.371335
  N    -5.783804  0.721026 -0.630358
  N    -6.395862 -2.716172  3.402751
  N    -6.450554  0.748800  3.273440
  S    -7.289886 -2.948826  2.059364
  S    -7.214980  0.688397  1.879039
  S    -4.431878 -2.780294 -0.835133
  S    -4.149491  0.926535 -0.888728
  S    -4.771355 -2.479895  3.181622
  S    -4.834720  0.935567  3.238916
