16  
    
  C    -2.708187 -1.697829  1.963622
  C    -3.179264  1.936276  1.745525
  C    -3.994544 -1.869644  1.324972
  C    -4.219404  1.230196  1.040447
  N    -1.720917 -1.555930  1.092264
  N    -2.055047  2.242431  1.039180
  N    -3.910447 -2.132896  0.007562
  N    -3.964035  1.152076 -0.271051
  N    -4.378542 -1.671119  3.877556
  N    -5.126203  1.591692  3.506776
  S    -5.248176 -1.898343  2.476122
  S    -5.682813  1.160134  2.043386
  S    -2.277889 -1.967930 -0.362394
  S    -2.461929  1.821996 -0.530679
  S    -2.758765 -1.407718  3.676933
  S    -3.577116  2.162887  3.442093
