16  
    
  C    -4.307774 -2.384399  1.525964
  C    -4.342987  1.589241  1.945761
  C    -5.508235 -2.844568  0.830350
  C    -5.480594  0.968380  1.390534
  N    -3.211793 -2.320488  0.742771
  N    -3.271774  1.779557  1.133444
  N    -5.378549 -2.998349 -0.480059
  N    -5.354108  0.783765  0.083433
  N    -6.125434 -2.596168  3.293329
  N    -6.123060  1.290311  3.884936
  S    -6.768567 -3.278072  1.887016
  S    -6.824380  0.778777  2.511651
  S    -3.770200 -2.720436 -0.763021
  S    -3.845278  1.240424 -0.338318
  S    -4.492209 -2.270180  3.224200
  S    -4.571953  1.857849  3.674802
