16  
    
  C     3.459938  1.645369  3.611540
  C     3.003863  5.218568  3.373149
  C     2.215711  1.133335  3.108817
  C     1.832371  4.662936  2.666092
  N     4.381065  1.865147  2.678410
  N     4.006075  5.540612  2.588884
  N     2.126060  0.935703  1.777301
  N     2.115956  4.399631  1.352781
  N     1.907384  1.394888  5.651210
  N     1.338180  4.697842  5.297190
  S     1.006596  0.949080  4.334672
  S     0.509689  4.300832  3.871413
  S     3.599103  1.387063  1.172642
  S     3.673710  4.886407  1.069069
  S     3.524262  1.722736  5.344899
  S     2.760051  5.553513  5.092898
