16  
    
  C     0.652627  0.203977  3.061834
  C     0.677952  3.842569  2.928711
  C    -0.616787  0.102084  2.456047
  C    -0.546340  3.596228  2.253862
  N     1.690465  0.211875  2.247792
  N     1.691793  3.962383  2.080749
  N    -0.580716 -0.023288  1.128162
  N    -0.413284  3.217615  0.948348
  N    -1.130667  0.210527  5.016709
  N    -1.061686  3.670188  4.791854
  S    -1.959195  0.139229  3.579738
  S    -1.763328  3.191308  3.446399
  S     1.037778  0.054824  0.705089
  S     1.164280  3.540894  0.614789
  S     0.521341  0.510677  4.836802
  S     0.533011  4.238779  4.636332
