16  
    
  C    -0.115963 -0.434142  2.473000
  C    -0.359794  3.286470  2.549175
  C    -1.303885 -0.876975  1.707813
  C    -1.661427  3.072460  2.000586
  N     0.925097 -0.195058  1.703940
  N     0.605706  3.537288  1.668430
  N    -1.084137 -1.095753  0.426819
  N    -1.660982  2.991997  0.660492
  N    -1.879465 -0.603519  4.296042
  N    -1.980343  3.185015  4.534362
  S    -2.524931 -1.238861  2.880466
  S    -2.936092  2.960778  3.225892
  S     0.484582 -0.553539  0.172007
  S    -0.053072  3.169102  0.196962
  S    -0.365254  0.047615  4.136358
  S    -0.393159  3.501025  4.255401
