16  
    
  C    -1.888899 -1.054758  2.384644
  C    -1.873633  2.359314  2.607558
  C    -3.087347 -1.552482  1.810259
  C    -3.079561  1.912474  1.929937
  N    -0.809136 -0.884446  1.590750
  N    -0.884173  2.733627  1.814341
  N    -2.966051 -1.726815  0.499128
  N    -2.972217  1.918176  0.610129
  N    -3.581492 -1.142833  4.282650
  N    -3.714105  2.089493  4.404026
  S    -4.425628 -1.591314  2.910192
  S    -4.483363  1.954826  2.928560
  S    -1.418017 -1.229135  0.069456
  S    -1.408632  2.437652  0.256604
  S    -1.962568 -0.889817  4.127188
  S    -2.090782  2.420464  4.322825
