16  
    
  C    -1.787641 -1.029452  2.341051
  C    -1.878721  2.419228  2.501075
  C    -3.104709 -1.334065  1.785067
  C    -3.049290  1.922858  1.829852
  N    -0.748422 -1.075947  1.464501
  N    -0.805659  2.554774  1.752127
  N    -3.076016 -1.414576  0.435670
  N    -2.889401  1.802541  0.524655
  N    -3.334347 -1.204290  4.351686
  N    -3.697981  2.090627  4.296449
  S    -4.296708 -1.376924  3.067461
  S    -4.367186  1.621329  2.865495
  S    -1.447784 -1.357902 -0.023602
  S    -1.290184  2.240721  0.214949
  S    -1.751818 -0.692097  4.072742
  S    -2.104695  2.585140  4.258371
