16  
    
  C     1.485344  0.741780  2.906071
  C     0.906830  4.034486  2.538063
  C     0.273561  0.297063  2.260621
  C    -0.286240  3.480479  1.824224
  N     2.500256  1.023869  2.097395
  N     1.862409  4.412192  1.737298
  N     0.309797  0.266059  0.902056
  N    -0.125637  3.209310  0.521790
  N    -0.157375  0.181997  4.707791
  N    -0.913190  3.733867  4.381669
  S    -1.038682  0.043714  3.376792
  S    -1.556892  3.139493  2.945637
  S     1.876430  0.673397  0.554903
  S     1.477193  3.728591  0.217882
  S     1.397254  0.789943  4.611385
  S     0.678359  4.327325  4.253288
