16  
    
  C    -0.401729 -0.727074  2.700570
  C    -0.375930  3.300286  2.687328
  C    -1.665018 -1.223183  2.164591
  C    -1.458527  2.592892  2.094866
  N     0.564383 -0.762775  1.795937
  N     0.707971  3.464189  1.957394
  N    -1.641038 -1.376959  0.828013
  N    -1.325572  2.463233  0.774060
  N    -2.069681 -0.627162  4.640961
  N    -2.226861  3.034647  4.558664
  S    -2.886443 -1.205613  3.347706
  S    -2.840658  2.334997  3.113407
  S    -0.113812 -1.105621  0.355982
  S     0.243643  2.896609  0.439005
  S    -0.444218 -0.319824  4.431415
  S    -0.691017  3.669693  4.374064
