16  
    
  C     2.316573  1.006040  3.509289
  C     2.051083  4.880356  3.197290
  C     1.014252  0.645459  2.976079
  C     0.871593  4.557826  2.469069
  N     3.273575  1.100648  2.557321
  N     3.094716  5.233946  2.432556
  N     1.056599  0.341741  1.681761
  N     1.097319  4.531221  1.174461
  N     0.634437  0.858659  5.430409
  N     0.069577  4.533007  4.855395
  S    -0.320279  0.694045  4.061551
  S    -0.546680  4.175668  3.317795
  S     2.530390  0.632911  1.155429
  S     2.652609  4.925153  0.862585
  S     2.231446  1.140312  5.271328
  S     1.649746  5.245862  4.887384
