16  
    
  C    -2.931358 -1.632394  1.988403
  C    -2.459466  2.201997  1.981888
  C    -4.060052 -2.231883  1.315587
  C    -3.792387  1.983644  1.426271
  N    -1.935214 -1.299830  1.174840
  N    -1.455748  2.059963  1.111292
  N    -3.996998 -2.191248  0.001856
  N    -3.743059  1.581263  0.164976
  N    -4.679621 -2.101710  3.834923
  N    -4.189491  2.237195  3.954751
  S    -5.326069 -2.596334  2.426555
  S    -5.060376  2.086805  2.533359
  S    -2.482565 -1.605633 -0.364869
  S    -2.127760  1.626677 -0.305364
  S    -3.059903 -1.596187  3.746544
  S    -2.546281  2.316038  3.714885
