16  
    
  C    -0.313098 -0.191933  2.558458
  C    -0.407694  3.285853  2.523797
  C    -1.475643 -0.823915  1.800534
  C    -1.574839  2.712100  2.008347
  N     0.763939 -0.011293  1.837373
  N     0.610835  3.411828  1.650397
  N    -1.225967 -1.083775  0.513750
  N    -1.570054  2.669325  0.663380
  N    -2.163088 -0.592663  4.314584
  N    -2.064841  3.208692  4.484139
  S    -2.846283 -1.000526  2.814585
  S    -2.894095  2.792441  3.114265
  S     0.385260 -0.531131  0.291698
  S     0.019520  2.988059  0.185077
  S    -0.578043 -0.088915  4.291483
  S    -0.444260  3.528062  4.268217
