16  
    
  C     1.991102  1.077583  2.993966
  C     2.275386  4.331280  3.054279
  C     0.806959  0.529259  2.390984
  C     1.029366  4.127000  2.278613
  N     2.987864  1.261026  2.140781
  N     3.411659  4.371322  2.340198
  N     0.953402  0.173073  1.100422
  N     1.349908  3.711746  1.064772
  N     0.169929  1.102147  4.852779
  N     0.204722  4.447927  4.657936
  S    -0.558037  0.636002  3.456888
  S    -0.357506  3.818792  3.228036
  S     2.442495  0.657343  0.706405
  S     2.897935  3.987564  0.824661
  S     1.860742  1.312602  4.752241
  S     1.886275  4.663881  4.762108
