16  
    
  C     2.368146  0.925920  3.485683
  C     1.963856  4.873223  3.011310
  C     1.061019  0.659806  2.874307
  C     0.866371  4.243547  2.311598
  N     3.359963  0.966293  2.596217
  N     2.935424  5.195342  2.206821
  N     1.057832  0.483921  1.570791
  N     1.055956  3.960817  1.006037
  N     0.652564  0.851674  5.404023
  N     0.228923  4.354202  4.923088
  S    -0.266734  0.628599  4.050583
  S    -0.564720  4.128800  3.405266
  S     2.657521  0.619068  1.071831
  S     2.530294  4.660723  0.666108
  S     2.245112  1.027243  5.262606
  S     1.765768  5.098205  4.801105
