16  
    
  C     1.397375  0.741875  2.991301
  C     0.982885  4.098901  2.650494
  C     0.171373  0.250015  2.404295
  C    -0.166282  3.578007  1.907185
  N     2.433055  0.997466  2.150507
  N     2.064118  4.425819  1.973343
  N     0.289285  0.119984  1.076221
  N     0.046390  3.529992  0.588886
  N    -0.329132  0.535986  4.886723
  N    -0.941368  3.847442  4.422868
  S    -1.187735  0.109135  3.509910
  S    -1.523178  3.152014  2.943511
  S     1.809323  0.601858  0.602977
  S     1.619743  4.073063  0.358914
  S     1.294157  0.791147  4.743938
  S     0.635442  4.408704  4.400874
