16  
    
  C    -1.078727 -0.690616  2.320918
  C    -0.710616  3.027520  2.700151
  C    -2.276241 -1.307810  1.715894
  C    -1.937676  2.686349  2.100242
  N    -0.045868 -0.608001  1.523543
  N     0.293415  3.324066  1.858543
  N    -2.134264 -1.600084  0.441656
  N    -1.750374  2.301469  0.818450
  N    -2.767860 -0.874411  4.230510
  N    -2.512380  3.071531  4.642749
  S    -3.620274 -1.203212  2.829091
  S    -3.324556  2.758069  3.170509
  S    -0.561920 -1.080874  0.025171
  S    -0.170390  2.626063  0.446831
  S    -1.196436 -0.375122  4.027868
  S    -0.826194  3.363528  4.390966
