16  
    
  C     1.922796  0.481416  3.074280
  C     1.888966  4.274640  3.284983
  C     0.591028  0.232127  2.586407
  C     0.617836  3.945222  2.644836
  N     2.873338  0.536490  2.143587
  N     2.847950  4.251057  2.402644
  N     0.511518  0.165013  1.256265
  N     0.602984  3.865770  1.344864
  N     0.272493  0.308490  5.114573
  N     0.112226  4.137744  5.148339
  S    -0.681489  0.147192  3.781842
  S    -0.701467  4.036940  3.739246
  S     2.078773  0.400767  0.652690
  S     2.217705  4.184947  0.813847
  S     1.888401  0.766588  4.838844
  S     1.809017  4.176077  5.020848
