16  
    
  C     2.004567  0.937352  3.000697
  C     2.188815  4.460741  3.092744
  C     0.781509  0.448288  2.417799
  C     1.086713  3.998027  2.293450
  N     3.000370  1.110135  2.184341
  N     3.311601  4.297751  2.429717
  N     0.903962  0.132125  1.141501
  N     1.278866  3.815166  0.994801
  N     0.263966  1.047825  4.813824
  N     0.237560  4.469342  4.719484
  S    -0.612529  0.707256  3.433538
  S    -0.384284  3.830040  3.206685
  S     2.485417  0.583027  0.695404
  S     2.987436  4.017798  0.806140
  S     1.842691  1.318466  4.692396
  S     1.897746  4.743793  4.755529
