16  
    
  C    -4.295782 -2.406631  1.539123
  C    -4.353142  1.596573  1.954398
  C    -5.498885 -2.813187  0.829423
  C    -5.464240  0.940167  1.403742
  N    -3.208856 -2.321356  0.741601
  N    -3.274405  1.768819  1.160697
  N    -5.362088 -3.027912 -0.461002
  N    -5.329446  0.780533  0.073642
  N    -6.124462 -2.588302  3.313297
  N    -6.143976  1.307688  3.882393
  S    -6.766318 -3.262155  1.905963
  S    -6.822276  0.791938  2.484210
  S    -3.774412 -2.734009 -0.760932
  S    -3.844054  1.240287 -0.328015
  S    -4.484131 -2.265291  3.202657
  S    -4.561246  1.872646  3.674187
