16  
    
  C     0.531478 -0.129582  2.798591
  C     0.260479  3.631429  2.902404
  C    -0.729591 -0.471443  2.193261
  C    -0.900748  3.270896  2.113411
  N     1.510420  0.207975  1.946662
  N     1.278623  3.940358  2.096650
  N    -0.615122 -0.705485  0.892820
  N    -0.737102  3.055073  0.814450
  N    -1.134546 -0.503204  4.680531
  N    -1.556705  3.053491  4.644435
  S    -2.034341 -0.682394  3.291816
  S    -2.218201  2.788964  3.165631
  S     0.911657 -0.182344  0.412193
  S     0.797102  3.670685  0.545590
  S     0.459897  0.017504  4.510550
  S     0.101914  3.490766  4.640549
