16  
    
  C    -4.809973 -2.311162  1.728413
  C    -4.935265  1.011844  1.785602
  C    -6.012159 -2.827631  1.176658
  C    -6.061211  0.450148  1.092386
  N    -3.831527 -2.066361  0.869598
  N    -3.943150  1.266325  0.968581
  N    -5.931818 -2.966568 -0.158478
  N    -5.877311  0.185793 -0.195016
  N    -6.406089 -2.795072  3.727179
  N    -6.776832  0.936489  3.445475
  S    -7.210784 -3.240885  2.393579
  S    -7.327329  0.123983  2.169164
  S    -4.389389 -2.620163 -0.607617
  S    -4.362736  0.841462 -0.546883
  S    -4.890758 -2.191051  3.486287
  S    -5.247189  1.511558  3.406003
