16  
    
  C    -0.183059 -0.390016  2.747365
  C     0.242861  3.357900  2.377062
  C    -1.256133 -0.958558  2.012553
  C    -1.046280  3.044671  1.710111
  N     0.933055 -0.147978  2.022042
  N     1.162141  3.691297  1.511265
  N    -1.069339 -0.979806  0.672830
  N    -0.932858  2.934537  0.408282
  N    -2.146568 -0.640213  4.474894
  N    -1.502227  2.830918  4.182759
  S    -2.755795 -1.080746  2.965141
  S    -2.357695  2.706937  2.789594
  S     0.491064 -0.452705  0.468476
  S     0.586745  3.440967 -0.007532
  S    -0.536146 -0.257823  4.476074
  S     0.020192  3.428356  4.073110
