16  
    
  C     1.936358  0.613410  3.170751
  C     1.821433  4.218010  3.130439
  C     0.607547  0.404036  2.644039
  C     0.538340  3.990825  2.529922
  N     2.937763  0.569248  2.292864
  N     2.853844  4.260150  2.328928
  N     0.594665  0.272793  1.284772
  N     0.605533  3.859577  1.251814
  N     0.346038  0.629670  5.217198
  N     0.197225  4.302038  5.016360
  S    -0.556535  0.184320  3.880843
  S    -0.676942  4.029637  3.708611
  S     2.211972  0.303930  0.828284
  S     2.264275  4.025697  0.779735
  S     1.997617  0.772587  4.851160
  S     1.834471  4.366962  4.845442
