16  
    
  C    -3.567538 -2.600805  1.875266
  C    -3.493020  1.786479  1.757335
  C    -4.797076 -2.914990  1.133529
  C    -4.543850  0.912216  1.237964
  N    -2.551030 -2.406773  1.080767
  N    -2.500679  2.115944  0.950100
  N    -4.725463 -3.006713 -0.185266
  N    -4.358158  0.674842 -0.055564
  N    -5.429452 -2.738944  3.612096
  N    -5.292227  1.524572  3.613268
  S    -6.170016 -3.201954  2.189123
  S    -5.924590  0.750066  2.311688
  S    -3.137289 -2.620182 -0.477818
  S    -2.940136  1.413676 -0.521092
  S    -3.767046 -2.378173  3.575163
  S    -3.792827  2.124963  3.470137
