16  
    
  C    -4.247808 -2.418047  1.514750
  C    -4.291567  1.463183  2.028255
  C    -5.460935 -2.986328  0.901532
  C    -5.469516  0.973289  1.369728
  N    -3.191159 -2.358402  0.689529
  N    -3.286732  1.757783  1.219850
  N    -5.335067 -3.199930 -0.411101
  N    -5.276885  0.615708  0.083567
  N    -5.996363 -2.573443  3.422800
  N    -6.126227  1.481115  3.723855
  S    -6.823680 -3.051038  2.050393
  S    -6.866095  0.879697  2.318597
  S    -3.730549 -2.805173 -0.814595
  S    -3.720268  1.251360 -0.263014
  S    -4.421368 -2.171335  3.243164
  S    -4.531579  1.976944  3.737669
