16  
    
  C     3.520005  1.707640  3.605054
  C     3.031984  5.322289  3.406078
  C     2.224608  1.260359  3.057909
  C     1.949541  4.648805  2.801237
  N     4.466497  1.945513  2.708879
  N     4.120604  5.424762  2.615122
  N     2.167292  1.114315  1.744997
  N     2.039997  4.438226  1.506718
  N     2.007451  1.457580  5.616303
  N     1.313066  4.945761  5.220055
  S     1.040753  0.922037  4.391967
  S     0.612416  4.305416  3.828251
  S     3.718065  1.540448  1.209890
  S     3.538869  5.000970  1.130391
  S     3.611720  1.724340  5.311770
  S     2.854089  5.501098  5.076100
