16  
    
  C    -3.043952 -1.398204  2.239153
  C    -3.170435  1.744401  2.001286
  C    -4.251642 -1.780373  1.552980
  C    -4.392489  1.395247  1.369051
  N    -2.053466 -1.221219  1.379745
  N    -2.165680  2.074962  1.182123
  N    -4.162692 -1.923778  0.251202
  N    -4.307272  1.325319  0.035377
  N    -4.820297 -1.572513  4.048015
  N    -5.040447  1.582387  3.823064
  S    -5.600046 -1.909769  2.603955
  S    -5.750412  1.240777  2.403617
  S    -2.584819 -1.576616 -0.122084
  S    -2.781405  1.768627 -0.336708
  S    -3.214633 -1.162432  3.972742
  S    -3.459075  1.901305  3.742146
