16  
    
  C    -3.433676 -2.237183  1.882285
  C    -3.789906  1.990604  1.894307
  C    -4.527153 -2.949701  1.286228
  C    -4.726281  1.020033  1.279969
  N    -2.379631 -1.996452  1.108585
  N    -2.754557  2.369071  1.176844
  N    -4.326163 -3.332543  0.018800
  N    -4.440340  0.745088  0.027553
  N    -5.356355 -2.493386  3.692075
  N    -5.416549  1.328548  3.672536
  S    -5.966703 -3.112471  2.267296
  S    -5.928420  0.520505  2.326932
  S    -2.778468 -2.804845 -0.318770
  S    -3.065522  1.600915 -0.316142
  S    -3.769185 -2.002986  3.570308
  S    -4.165224  2.425553  3.538986
