16  
    
  C    -2.343634 -1.121071  2.147320
  C    -2.738472  2.651552  2.302384
  C    -3.413061 -1.858924  1.552012
  C    -3.837440  1.974076  1.719934
  N    -1.379514 -0.722986  1.294091
  N    -1.732862  2.962845  1.488670
  N    -3.344274 -1.877680  0.213153
  N    -3.719519  1.746726  0.434821
  N    -4.092103 -1.577955  3.955849
  N    -4.399120  2.146904  4.226194
  S    -4.695192 -2.286154  2.552492
  S    -5.066542  1.420379  2.900846
  S    -1.868186 -1.207913 -0.201101
  S    -2.268713  2.420438 -0.032099
  S    -2.534768 -0.947417  3.896251
  S    -2.891856  2.819432  4.034596
