16  
    
  C     1.197799  0.177202  3.001484
  C     0.625797  3.684716  3.190801
  C    -0.040131 -0.411870  2.430134
  C    -0.517051  3.391229  2.381069
  N     2.224236  0.308916  2.158617
  N     1.635453  4.120784  2.425430
  N     0.076208 -0.650486  1.155387
  N    -0.244375  3.230076  1.101908
  N    -0.571076  0.170390  4.882167
  N    -1.197117  3.106868  4.863316
  S    -1.372380 -0.439238  3.508920
  S    -1.832235  2.840833  3.348333
  S     1.615817 -0.212455  0.747486
  S     1.250234  3.861588  0.892987
  S     1.031868  0.602666  4.622328
  S     0.365892  3.678221  4.960325
