16  
    
  C     2.944620  1.566633  3.407447
  C     2.966453  5.070656  3.268632
  C     1.701265  1.321275  2.709206
  C     1.729737  4.797361  2.564132
  N     4.036095  1.571383  2.647994
  N     4.040616  5.173309  2.469884
  N     1.822861  1.229791  1.372636
  N     1.958183  4.410112  1.293390
  N     1.215330  0.988837  5.212494
  N     1.148615  4.960506  5.049408
  S     0.425833  0.878829  3.755921
  S     0.396361  4.473584  3.629788
  S     3.401167  1.392745  1.026880
  S     3.525175  4.777503  0.951285
  S     2.816366  1.602964  5.200139
  S     2.808184  5.365768  4.952174
