16  
    
  C     0.761332 -0.199075  2.807808
  C     0.422436  3.447092  2.950759
  C    -0.534152 -0.323284  2.224494
  C    -0.850496  3.518385  2.288787
  N     1.718415 -0.158121  1.928155
  N     1.435228  3.684274  2.134140
  N    -0.569216 -0.238599  0.911692
  N    -0.787025  3.523720  0.935461
  N    -0.852367 -0.313586  4.721478
  N    -1.294998  3.089282  4.840420
  S    -1.783027 -0.639403  3.356469
  S    -2.157799  2.951044  3.350792
  S     1.004588 -0.118015  0.441740
  S     0.762502  3.920670  0.627274
  S     0.781685 -0.057701  4.514491
  S     0.311900  3.395432  4.698780
