16  
    
  C     3.753755  2.080988  3.672097
  C     3.464572  5.384855  3.573835
  C     2.585600  1.547015  2.977598
  C     2.255272  4.929675  2.941912
  N     4.827710  2.360151  2.928413
  N     4.568077  5.459588  2.807115
  N     2.860608  1.313935  1.701940
  N     2.369405  4.889843  1.639722
  N     1.791792  1.965961  5.326936
  N     1.798645  4.935933  5.400407
  S     1.107526  1.502158  3.914341
  S     0.932059  4.722598  4.009485
  S     4.351826  1.830824  1.309310
  S     3.902814  5.322851  1.256897
  S     3.409199  2.230494  5.360689
  S     3.439013  5.407665  5.296847
