16  
    
  C    -0.124170 -0.481381  2.619011
  C    -0.026628  3.354012  2.496105
  C    -1.295179 -0.898490  1.888061
  C    -1.095455  2.670096  1.823482
  N     0.928336 -0.149591  1.852395
  N     1.040254  3.609043  1.778590
  N    -1.063111 -1.062508  0.583353
  N    -0.979226  2.725402  0.504774
  N    -2.001331 -0.918646  4.403651
  N    -1.858935  2.960353  4.305075
  S    -2.629016 -1.407958  2.983080
  S    -2.407767  2.299573  2.880228
  S     0.459219 -0.530742  0.325207
  S     0.595406  3.236649  0.214658
  S    -0.443635 -0.418385  4.309236
  S    -0.229587  3.517576  4.203398
