16  
    
  C    -3.954659 -1.853911  1.740355
  C    -3.704960  1.782331  1.833123
  C    -5.114389 -2.450221  1.095928
  C    -4.991724  1.430843  1.173624
  N    -2.883673 -1.687811  0.947298
  N    -2.691846  2.079634  1.023076
  N    -5.010780 -2.524256 -0.205390
  N    -4.881475  1.355416 -0.145749
  N    -5.835144 -1.903156  3.427621
  N    -5.416364  1.564858  3.702126
  S    -6.516745 -2.703281  2.150095
  S    -6.176472  1.123200  2.313862
  S    -3.464960 -2.093695 -0.590250
  S    -3.355193  1.790108 -0.540295
  S    -4.175159 -1.579772  3.435471
  S    -3.784319  1.835314  3.593688
