16  
    
  C    -4.237566 -2.420072  1.510457
  C    -4.264041  1.486400  2.030363
  C    -5.420093 -3.034399  0.916244
  C    -5.455095  0.958898  1.341946
  N    -3.216358 -2.359659  0.704577
  N    -3.262410  1.756945  1.213384
  N    -5.343105 -3.224528 -0.429489
  N    -5.225586  0.624932  0.079670
  N    -5.972026 -2.573110  3.439492
  N    -6.147723  1.506950  3.701987
  S    -6.834895 -3.004635  2.062095
  S    -6.874650  0.904788  2.330671
  S    -3.734077 -2.814916 -0.818104
  S    -3.707095  1.233800 -0.261208
  S    -4.396301 -2.140166  3.268535
  S    -4.550154  1.977090  3.727784
