16  
    
  C    -3.196656 -2.004671  1.895736
  C    -3.679224  1.829465  2.079988
  C    -4.351648 -2.619561  1.260883
  C    -4.729431  1.109018  1.322856
  N    -2.126607 -1.967272  1.101069
  N    -2.694486  2.148575  1.283707
  N    -4.304820 -2.760493 -0.052673
  N    -4.380640  0.733531  0.106919
  N    -5.049720 -2.157365  3.723389
  N    -5.614446  1.513319  3.667385
  S    -5.698148 -2.863645  2.384342
  S    -6.119826  0.635441  2.231001
  S    -2.710666 -2.430674 -0.438430
  S    -2.941555  1.502477 -0.218393
  S    -3.534181 -1.503069  3.530879
  S    -4.020131  2.171636  3.711081
