16  
    
  C     1.426427  1.017218  3.373028
  C     1.382872  4.613486  3.347570
  C     0.175834  0.626337  2.746086
  C     0.116468  4.131207  2.943346
  N     2.487199  0.919853  2.572808
  N     2.307100  4.648283  2.403600
  N     0.253783  0.306705  1.447805
  N    -0.008160  3.915297  1.646131
  N    -0.171480  0.874410  5.286560
  N    -0.107099  4.535943  5.465870
  S    -1.120582  0.426568  3.934839
  S    -1.143339  4.127336  4.170021
  S     1.898583  0.363220  1.099618
  S     1.508141  4.307061  0.939476
  S     1.393508  1.313032  5.108561
  S     1.543467  4.686171  5.039509
