16  
    
  C     2.704451  1.358632  3.650516
  C     2.931090  5.198909  3.581333
  C     1.499667  0.864244  3.039613
  C     1.728866  4.856334  2.833518
  N     3.735986  1.589671  2.866428
  N     3.995201  5.521630  2.843252
  N     1.650997  0.712444  1.725312
  N     1.944042  4.915579  1.525393
  N     1.033466  1.240032  5.538134
  N     1.078838  4.737545  5.409714
  S     0.186880  0.742617  4.199972
  S     0.297142  4.709535  3.961406
  S     3.170850  1.200567  1.337582
  S     3.541820  5.219059  1.235511
  S     2.689492  1.551306  5.374981
  S     2.678270  5.352631  5.309557
