16  
    
  C    -3.137324 -1.713957  1.815521
  C    -3.553363  1.575886  2.077317
  C    -4.322434 -2.398681  1.307055
  C    -4.749995  1.149974  1.344680
  N    -2.066457 -1.617817  1.010685
  N    -2.430972  1.742192  1.387592
  N    -4.246871 -2.644982  0.017409
  N    -4.436961  0.761947  0.109797
  N    -4.749305 -2.037168  3.806582
  N    -5.488346  1.422101  3.891566
  S    -5.552140 -2.639818  2.480204
  S    -6.120968  1.030046  2.381247
  S    -2.707258 -2.230519 -0.432707
  S    -2.823610  1.197303 -0.175999
  S    -3.225333 -1.466216  3.520918
  S    -3.874704  1.924083  3.780649
