16  
    
  C    -2.669225 -1.435142  2.158639
  C    -2.570080  2.339229  2.241855
  C    -3.938579 -1.812879  1.513211
  C    -3.772338  1.892775  1.569541
  N    -1.680964 -1.205710  1.328996
  N    -1.572597  2.704242  1.445152
  N    -3.789005 -1.960212  0.211160
  N    -3.627095  1.827252  0.267287
  N    -4.409473 -1.490429  4.076359
  N    -4.257040  1.902153  4.092327
  S    -5.257622 -2.060605  2.734556
  S    -5.061298  1.640744  2.664610
  S    -2.221710 -1.534665 -0.193611
  S    -2.058199  2.364256 -0.050886
  S    -2.785655 -1.313312  3.853873
  S    -2.671316  2.408727  3.981945
