16  
    
  C     3.491166  1.694357  3.583794
  C     3.010744  5.337363  3.397415
  C     2.205153  1.259230  3.072736
  C     1.916421  4.619352  2.810242
  N     4.430597  1.937633  2.673312
  N     4.095815  5.425167  2.604761
  N     2.155871  1.090318  1.740996
  N     2.027093  4.444855  1.492058
  N     1.996417  1.462852  5.625778
  N     1.320066  4.901008  5.220215
  S     1.053035  0.919995  4.388959
  S     0.605842  4.311030  3.830881
  S     3.713839  1.522024  1.221317
  S     3.566691  4.988647  1.141766
  S     3.605921  1.709489  5.322973
  S     2.841257  5.508555  5.054969
