16  
    
  C    -1.354752 -0.988860  2.250507
  C    -1.562088  2.850204  2.017382
  C    -2.528778 -1.324692  1.526165
  C    -2.664929  2.163727  1.331655
  N    -0.237855 -0.745780  1.551140
  N    -0.522804  3.110788  1.262883
  N    -2.269215 -1.404702  0.231676
  N    -2.353619  1.930783  0.073102
  N    -3.235732 -1.492693  4.074888
  N    -3.294918  2.392058  3.809483
  S    -3.954431 -1.651343  2.539820
  S    -3.864040  1.646732  2.440392
  S    -0.683327 -1.019688 -0.024769
  S    -0.877999  2.571545 -0.267624
  S    -1.714937 -0.802703  3.975652
  S    -1.895165  3.281513  3.690710
