16  
    
  C    -4.692701 -2.473455  1.727787
  C    -4.840713  1.164155  1.630976
  C    -5.984956 -2.865354  1.162644
  C    -5.926180  0.439409  1.028085
  N    -3.763185 -2.208733  0.788718
  N    -3.809178  1.392304  0.772956
  N    -5.920935 -3.119495 -0.130524
  N    -5.735938  0.306334 -0.272931
  N    -6.364340 -2.670591  3.663094
  N    -6.709744  0.859354  3.417562
  S    -7.214507 -3.122852  2.330117
  S    -7.328279  0.133937  2.075691
  S    -4.472849 -2.585985 -0.676664
  S    -4.264454  0.874473 -0.713945
  S    -4.790134 -2.145753  3.437175
  S    -5.118669  1.408800  3.334109
