16  
    
  C     2.547669  1.119758  3.240055
  C     2.574617  5.026866  3.593543
  C     1.385536  0.663885  2.484527
  C     1.437246  4.281593  3.080569
  N     3.656374  1.179426  2.536946
  N     3.514036  5.269273  2.716129
  N     1.571591  0.483745  1.174559
  N     1.463343  4.063159  1.769222
  N     0.659332  1.133117  4.973875
  N     0.944157  4.849306  5.537761
  S     0.088372  0.402247  3.592576
  S     0.154416  4.226473  4.269011
  S     3.211800  0.810924  0.934843
  S     2.969576  4.625653  1.251273
  S     2.317958  1.331399  4.930434
  S     2.489295  5.347318  5.270816
