16  
    
  C     0.841964  0.092603  2.815545
  C     0.420905  3.700216  2.975941
  C    -0.409176 -0.331291  2.198181
  C    -0.834414  3.588465  2.381627
  N     1.859253  0.144277  1.937957
  N     1.444613  3.825125  2.119204
  N    -0.436293 -0.400005  0.855684
  N    -0.879664  3.689371  1.068491
  N    -0.793418 -0.175989  4.792193
  N    -1.180106  3.059516  4.878984
  S    -1.716899 -0.349884  3.412274
  S    -2.112855  3.226783  3.546621
  S     1.165326 -0.096316  0.461827
  S     0.786411  3.949212  0.607667
  S     0.848329  0.067455  4.594550
  S     0.487846  3.327895  4.655637
