16  
    
  C     1.438548  0.618669  2.967705
  C     0.953109  3.989956  2.586775
  C     0.251590  0.275079  2.245763
  C    -0.257440  3.558602  1.826353
  N     2.535591  0.551806  2.249557
  N     2.006226  4.207452  1.831182
  N     0.430295 -0.164282  1.033334
  N    -0.033561  3.298890  0.549319
  N    -0.406810  0.776995  4.640088
  N    -0.968057  3.662204  4.298977
  S    -1.151187  0.313281  3.273605
  S    -1.630375  3.194364  2.898536
  S     2.078718 -0.013008  0.761734
  S     1.543693  3.770071  0.239306
  S     1.214852  1.020871  4.577888
  S     0.647518  4.058278  4.271779
