16  
    
  C     3.335118  1.625524  3.345509
  C     3.107111  5.163232  3.428307
  C     2.013976  1.506550  2.726080
  C     1.866781  4.729285  2.831294
  N     4.341238  1.414505  2.475337
  N     4.121558  5.142639  2.556668
  N     1.997285  1.300502  1.416618
  N     1.933549  4.516637  1.525919
  N     1.577360  1.633572  5.249076
  N     1.391415  5.026658  5.326873
  S     0.682050  1.610035  3.850784
  S     0.565627  4.553038  3.951054
  S     3.544971  1.176192  0.914338
  S     3.496868  4.678054  1.096075
  S     3.251440  1.982114  5.068732
  S     3.042535  5.251971  5.193891
