16  
    
  C     2.039061  0.650265  3.228222
  C     1.964800  4.216242  3.083929
  C     0.706527  0.363323  2.692349
  C     0.624378  4.124401  2.486700
  N     2.977131  0.652521  2.273086
  N     2.972052  4.224490  2.217870
  N     0.679106  0.124596  1.384370
  N     0.681767  3.837783  1.210184
  N     0.351110  0.685961  5.188221
  N     0.214579  4.245367  5.044825
  S    -0.560522  0.390661  3.865930
  S    -0.670940  3.975320  3.643418
  S     2.291222  0.316858  0.792065
  S     2.307444  3.951841  0.718577
  S     2.059505  0.801618  4.969204
  S     1.865491  4.622666  4.798055
