16  
    
  C    -1.538166 -1.303786  2.156236
  C    -1.734407  2.313207  1.908160
  C    -2.817253 -1.355024  1.471882
  C    -2.961333  1.945468  1.305764
  N    -0.545948 -1.341246  1.283755
  N    -0.693945  2.449817  1.078283
  N    -2.771795 -1.542840  0.160121
  N    -2.937067  2.044803 -0.037488
  N    -3.236354 -0.978841  4.043639
  N    -3.466904  2.362673  3.773735
  S    -4.142116 -1.189415  2.634523
  S    -4.306797  1.827484  2.466706
  S    -1.154785 -1.384530 -0.197906
  S    -1.335626  2.223805 -0.443171
  S    -1.578963 -0.802229  3.791745
  S    -1.824674  2.416326  3.652628
