16  
    
  C    -3.995393 -1.976455  1.760114
  C    -3.974554  1.562498  1.701364
  C    -5.262258 -2.217472  1.054121
  C    -5.192578  1.281502  1.061345
  N    -2.993639 -1.924607  0.860753
  N    -2.922306  1.527341  0.886427
  N    -5.175755 -2.516871 -0.240432
  N    -5.187466  1.099440 -0.251158
  N    -5.788690 -1.852779  3.590230
  N    -5.696604  1.578865  3.603067
  S    -6.604128 -2.277586  2.188202
  S    -6.530034  1.364557  2.125776
  S    -3.550089 -2.288874 -0.666830
  S    -3.535075  1.218509 -0.642552
  S    -4.108113 -1.700981  3.435743
  S    -4.050079  1.668325  3.429785
