16  
    
  C     1.151993  0.180104  2.912744
  C     0.734075  3.701787  3.187846
  C    -0.037477 -0.403052  2.441089
  C    -0.512691  3.427879  2.516456
  N     2.121235  0.332932  1.993133
  N     1.707762  4.104916  2.346097
  N    -0.002534 -0.843291  1.164734
  N    -0.342207  3.356234  1.168399
  N    -0.479428  0.173913  4.958997
  N    -1.000065  3.245402  5.031191
  S    -1.267391 -0.491211  3.684982
  S    -1.826445  3.035993  3.584414
  S     1.519650 -0.365969  0.609902
  S     1.234343  3.717911  0.865180
  S     1.050844  0.573276  4.673990
  S     0.595369  3.635405  4.872397
