16  
    
  C    -2.846830 -1.539013  2.008482
  C    -2.410388  1.977338  2.018680
  C    -4.065254 -2.128775  1.454515
  C    -3.732965  1.940618  1.436817
  N    -1.876560 -1.345584  1.090242
  N    -1.415134  1.946860  1.124317
  N    -4.056567 -2.134621  0.107203
  N    -3.737702  1.627453  0.144543
  N    -4.548263 -2.034942  3.908288
  N    -4.054246  2.209066  3.918209
  S    -5.327061 -2.549114  2.555055
  S    -4.997784  2.114370  2.568419
  S    -2.552551 -1.620998 -0.391550
  S    -2.108375  1.600147 -0.310078
  S    -2.930400 -1.594233  3.748559
  S    -2.425982  2.380641  3.771885
