16  
    
  C    -5.705087 -2.772115  1.488272
  C    -5.538425  0.914895  1.469621
  C    -6.883495 -3.109459  0.790622
  C    -6.745173  0.410306  0.827431
  N    -4.733011 -2.382043  0.671451
  N    -4.494020  0.994424  0.657830
  N    -6.725620 -3.278298 -0.515797
  N    -6.654503  0.260709 -0.521485
  N    -7.633779 -2.791784  3.170882
  N    -7.345868  0.858398  3.234177
  S    -8.251853 -3.258659  1.769588
  S    -8.098241  0.207116  1.937389
  S    -5.206754 -2.799105 -0.839081
  S    -5.060335  0.603584 -0.839896
  S    -6.025931 -2.643349  3.206971
  S    -5.718799  1.010786  3.189065
