16  
    
  C    -3.551104 -2.676151  1.891401
  C    -3.534418  1.835719  1.824109
  C    -4.787933 -2.914188  1.174199
  C    -4.547860  0.905790  1.255959
  N    -2.504915 -2.406930  1.073490
  N    -2.524867  2.161483  1.009040
  N    -4.689781 -3.031553 -0.142584
  N    -4.384271  0.641624 -0.064062
  N    -5.438223 -2.712982  3.618422
  N    -5.307787  1.523097  3.614440
  S    -6.148675 -3.248284  2.224493
  S    -5.916339  0.731349  2.304951
  S    -3.093733 -2.639107 -0.466793
  S    -2.981116  1.425481 -0.475195
  S    -3.784208 -2.334883  3.564659
  S    -3.803078  2.136714  3.444853
