16  
    
  C    -2.182139 -0.806906  2.301210
  C    -2.145039  2.451606  1.939635
  C    -3.388028 -1.280698  1.603584
  C    -3.365328  1.992344  1.405844
  N    -1.104237 -0.787943  1.526372
  N    -1.133380  2.580364  1.072276
  N    -3.192136 -1.646589  0.319094
  N    -3.346796  1.767049  0.092385
  N    -3.894472 -1.204125  4.163404
  N    -3.836563  2.351973  3.877309
  S    -4.750425 -1.267444  2.734954
  S    -4.687948  1.948894  2.540058
  S    -1.576387 -1.327005 -0.006520
  S    -1.778872  2.053773 -0.383815
  S    -2.308203 -0.735229  4.018178
  S    -2.218717  2.575384  3.685404
