16  
    
  C    -1.576517 -1.106637  2.677771
  C    -1.690379  2.408258  2.414257
  C    -2.691800 -1.645976  1.955806
  C    -2.901952  2.130698  1.717465
  N    -0.450358 -0.856135  1.941800
  N    -0.682709  2.784970  1.639194
  N    -2.470671 -1.728028  0.615941
  N    -2.774820  1.927098  0.425071
  N    -3.498674 -1.494923  4.415338
  N    -3.555592  2.331926  4.191940
  S    -4.124934 -1.785941  2.899529
  S    -4.321591  2.204360  2.737514
  S    -0.943688 -1.157530  0.341600
  S    -1.152630  2.348515  0.091135
  S    -1.868070 -1.200344  4.465726
  S    -1.945492  2.747657  4.092006
