16  
    
  C    -3.849788 -2.265334  1.678295
  C    -3.549731  2.081377  1.668629
  C    -5.114076 -2.472573  1.053004
  C    -4.709754  1.418896  1.055622
  N    -2.915573 -1.867803  0.787186
  N    -2.579231  2.197184  0.738193
  N    -5.063490 -2.502714 -0.306967
  N    -4.661222  1.296281 -0.274911
  N    -5.645313 -2.486245  3.578236
  N    -5.163757  1.501807  3.567281
  S    -6.472181 -2.712159  2.185342
  S    -5.950888  0.972666  2.207270
  S    -3.531003 -2.033658 -0.727300
  S    -3.132603  1.755355 -0.704236
  S    -3.962579 -2.386463  3.427431
  S    -3.667400  2.132180  3.351096
