16  
    
  C    -1.123279 -0.636104  2.336836
  C    -0.674031  3.141586  2.769452
  C    -2.232262 -1.262525  1.729996
  C    -1.902850  2.648116  2.120608
  N    -0.038596 -0.608982  1.562642
  N     0.314035  3.305706  1.883865
  N    -2.185115 -1.554090  0.396200
  N    -1.744703  2.348679  0.838611
  N    -2.796790 -0.872953  4.250537
  N    -2.453804  3.078802  4.605511
  S    -3.570659 -1.173070  2.818401
  S    -3.316341  2.787113  3.216126
  S    -0.546288 -1.048122  0.047675
  S    -0.156016  2.633725  0.476750
  S    -1.169725 -0.392771  4.074173
  S    -0.818169  3.407371  4.424300
