16  
    
  C    -1.377337 -0.623358  1.847894
  C    -1.222759  3.448305  2.146543
  C    -2.586180 -1.222711  1.499101
  C    -2.370134  2.732805  1.595879
  N    -0.528887 -0.486617  0.834772
  N    -0.324766  3.632259  1.202686
  N    -2.781733 -1.461735  0.164587
  N    -2.363143  2.556328  0.295770
  N    -2.811655 -0.556939  3.987628
  N    -2.752981  2.917202  4.124853
  S    -3.701049 -1.313657  2.823954
  S    -3.579350  2.342102  2.801331
  S    -1.298997 -1.013994 -0.538858
  S    -0.982405  3.232234 -0.253396
  S    -1.258669 -0.133875  3.573505
  S    -1.216533  3.502584  3.833223
