16  
    
  C    -3.193180 -2.095451  1.936060
  C    -3.738527  1.870874  2.020412
  C    -4.378678 -2.596891  1.290718
  C    -4.726963  1.071567  1.337605
  N    -2.177177 -1.964407  1.103119
  N    -2.729450  2.169948  1.237319
  N    -4.277127 -2.821758 -0.033552
  N    -4.368400  0.757585  0.112067
  N    -5.073568 -2.199749  3.701614
  N    -5.611390  1.505369  3.655341
  S    -5.731773 -2.876219  2.364299
  S    -6.082390  0.616427  2.242281
  S    -2.715768 -2.461431 -0.418852
  S    -2.951718  1.550880 -0.226915
  S    -3.569789 -1.538393  3.499469
  S    -4.067502  2.197998  3.694180
