16  
    
  C     1.117638  0.283612  3.112951
  C     1.072219  4.167017  2.644506
  C    -0.035036  0.087123  2.307515
  C    -0.118721  3.607799  1.914548
  N     2.269381  0.253221  2.436108
  N     2.172051  4.370128  1.861604
  N     0.201398 -0.108604  1.026257
  N     0.245259  3.104763  0.744949
  N    -0.788119  0.318687  4.709302
  N    -1.008829  4.033990  4.246762
  S    -1.476233  0.238893  3.266781
  S    -1.458538  3.196683  2.948642
  S     1.878149  0.003289  0.834010
  S     1.761860  3.680798  0.337635
  S     0.840815  0.523987  4.807848
  S     0.638981  4.508932  4.251425
