16  
    
  C     1.909744  0.474964  3.078553
  C     1.874330  4.158126  3.299230
  C     0.582402  0.182358  2.566735
  C     0.590981  4.106827  2.636375
  N     2.828048  0.592490  2.106950
  N     2.871131  4.282982  2.414571
  N     0.494461  0.121424  1.250473
  N     0.624886  3.861493  1.313002
  N     0.228834  0.259092  5.151923
  N     0.177609  4.056649  5.148913
  S    -0.678098  0.163832  3.745765
  S    -0.677458  3.997253  3.762996
  S     2.076990  0.415831  0.631341
  S     2.221962  4.219669  0.889353
  S     1.842101  0.719650  4.777638
  S     1.781607  4.187272  5.048180
