16  
    
  C    -4.314279 -2.511559  1.504407
  C    -4.457187  1.633991  1.931820
  C    -5.523162 -2.849371  0.791843
  C    -5.633609  0.996679  1.348210
  N    -3.278996 -2.188943  0.750081
  N    -3.436854  1.757525  1.117650
  N    -5.303046 -2.966855 -0.529181
  N    -5.486858  0.838627  0.036548
  N    -6.256455 -2.811536  3.300555
  N    -6.009511  1.094845  3.932588
  S    -6.871426 -3.311191  1.825147
  S    -6.813340  0.643356  2.520877
  S    -3.758541 -2.490927 -0.851515
  S    -3.976317  1.250489 -0.390924
  S    -4.651124 -2.314876  3.231248
  S    -4.397741  1.787142  3.704270
