16  
    
  C     2.283815  1.064554  3.483287
  C     2.030911  4.972703  3.205780
  C     1.004970  0.668524  2.937124
  C     0.904688  4.451740  2.420155
  N     3.253224  1.178768  2.574144
  N     3.079626  5.181929  2.438013
  N     1.027428  0.335130  1.663666
  N     1.077483  4.549367  1.107546
  N     0.559628  0.876449  5.496956
  N     0.183775  4.491354  4.824301
  S    -0.325097  0.680904  4.060964
  S    -0.546219  4.195077  3.343105
  S     2.540320  0.627583  1.127699
  S     2.643246  4.940067  0.851489
  S     2.243341  1.138498  5.256117
  S     1.676991  5.185107  4.944989
