16  
    
  C     0.789323 -0.133053  2.790413
  C     0.413521  3.479024  2.960621
  C    -0.530560 -0.335053  2.224206
  C    -0.825893  3.499795  2.305200
  N     1.771182 -0.163228  1.911270
  N     1.430931  3.662082  2.131519
  N    -0.557853 -0.201733  0.904466
  N    -0.818678  3.558126  0.969685
  N    -0.848080 -0.296986  4.717183
  N    -1.277345  3.072148  4.842492
  S    -1.780822 -0.629830  3.368737
  S    -2.136151  2.985517  3.358418
  S     1.010177 -0.125488  0.458138
  S     0.764351  3.935649  0.621528
  S     0.807225 -0.059826  4.518024
  S     0.327899  3.390703  4.710800
