16  
    
  C    -5.395455 -2.782554  1.542782
  C    -5.532952  1.073052  1.344953
  C    -6.678812 -3.000670  0.857819
  C    -6.657095  0.448425  0.637355
  N    -4.368772 -2.707840  0.706336
  N    -4.467776  1.322367  0.573850
  N    -6.507157 -3.230773 -0.453499
  N    -6.581773  0.369163 -0.732137
  N    -7.167199 -3.200395  3.390377
  N    -7.240974  0.523262  3.167004
  S    -7.988424 -3.529516  1.943490
  S    -7.977419  0.079834  1.778106
  S    -4.895372 -3.017202 -0.831769
  S    -4.978865  0.907479 -1.009900
  S    -5.611258 -2.568703  3.308912
  S    -5.725769  1.190554  3.090856
