16  
    
  C     1.359433  0.676582  3.148292
  C     1.077640  4.383851  2.826765
  C     0.117545  0.253391  2.564061
  C    -0.032069  3.867308  2.088703
  N     2.365744  0.752022  2.260132
  N     2.168261  4.655905  2.135322
  N     0.157525  0.109314  1.228471
  N     0.221251  3.643049  0.808114
  N    -0.326002  0.724017  5.050681
  N    -0.879791  3.823679  4.551487
  S    -1.206434  0.208212  3.731492
  S    -1.499739  3.395825  3.029109
  S     1.714001  0.457262  0.732765
  S     1.714471  4.241184  0.566803
  S     1.249026  1.086415  4.850895
  S     0.734021  4.341037  4.538694
