16  
    
  C    -5.588844 -2.811210  1.581971
  C    -5.489824  0.988451  1.360249
  C    -6.801360 -3.035172  0.849877
  C    -6.672385  0.392225  0.784558
  N    -4.543406 -2.593355  0.821594
  N    -4.410757  1.191474  0.586711
  N    -6.585767 -3.273506 -0.448532
  N    -6.616357  0.209593 -0.542200
  N    -7.392365 -3.204807  3.291846
  N    -7.266417  0.578668  3.232524
  S    -8.170767 -3.249635  1.850282
  S    -8.003648  0.186209  1.856580
  S    -5.001270 -2.908649 -0.693377
  S    -5.082089  0.763941 -0.926052
  S    -5.846215 -2.555477  3.263739
  S    -5.709759  1.113565  3.083899
