16  
    
  C    -2.801408 -1.987112  1.996085
  C    -2.918489  2.507048  1.910575
  C    -4.025893 -2.178491  1.251575
  C    -4.075038  1.967144  1.198275
  N    -1.698442 -1.798942  1.271223
  N    -1.823273  2.553308  1.161428
  N    -3.809307 -2.245710 -0.052245
  N    -3.898725  1.859665 -0.094139
  N    -4.704999 -1.972795  3.760862
  N    -4.704434  1.862595  3.690942
  S    -5.401225 -2.350699  2.256415
  S    -5.364623  1.527974  2.172086
  S    -2.164764 -1.987527 -0.329612
  S    -2.257334  2.191116 -0.357428
  S    -3.086809 -1.702601  3.712884
  S    -3.089818  2.341641  3.599427
