16  
    
  C    -1.492764 -1.122192  2.286659
  C    -1.867651  2.579666  2.136924
  C    -2.831452 -1.292987  1.674500
  C    -3.034885  2.019805  1.522273
  N    -0.526671 -0.958566  1.389599
  N    -0.822558  2.596005  1.292294
  N    -2.790479 -1.611333  0.359034
  N    -2.954111  1.732923  0.215232
  N    -3.239540 -0.922073  4.242883
  N    -3.489259  2.148980  4.057424
  S    -4.153898 -1.231609  2.881361
  S    -4.331238  1.851293  2.676308
  S    -1.196158 -1.416091 -0.098404
  S    -1.368073  2.165292 -0.189037
  S    -1.556251 -0.938085  3.976671
  S    -1.897073  2.573256  3.861024
