16  
    
  C    -5.753098 -2.964656  1.494216
  C    -6.093047  0.952505  1.369298
  C    -6.891917 -3.504112  0.826740
  C    -7.296053  0.299282  0.888792
  N    -4.671543 -2.949167  0.685416
  N    -5.177631  1.358311  0.493265
  N    -6.753780 -3.575380 -0.493589
  N    -7.191799  0.111408 -0.419682
  N    -7.531651 -3.564775  3.335525
  N    -7.494634  0.173836  3.533049
  S    -8.293371 -3.785471  1.840933
  S    -8.320616 -0.382244  2.155097
  S    -5.167120 -3.311442 -0.845129
  S    -5.801582  0.798105 -0.948787
  S    -6.059465 -2.768578  3.262371
  S    -6.088053  0.969787  3.180398
