16  
    
  C     2.003845  1.181110  3.039903
  C     2.269241  4.455532  3.067682
  C     0.794289  0.646640  2.451909
  C     1.135954  3.878394  2.360844
  N     3.027553  1.295344  2.173733
  N     3.361306  4.472562  2.307342
  N     0.896613  0.296452  1.172501
  N     1.241809  3.728798  1.030810
  N     0.221125  1.080773  4.992481
  N     0.289168  4.370869  4.693862
  S    -0.533632  0.546156  3.502735
  S    -0.366263  3.870100  3.267283
  S     2.484885  0.720884  0.678517
  S     2.901442  3.952192  0.762069
  S     1.821564  1.329563  4.743784
  S     1.856489  4.577864  4.726612
