16  
    
  C    -4.171406 -2.388134  1.601989
  C    -4.268752  1.630551  1.967801
  C    -5.392347 -2.919474  1.051112
  C    -5.428848  1.132038  1.282515
  N    -3.150119 -2.332027  0.736909
  N    -3.196481  1.752283  1.164708
  N    -5.382194 -3.235869 -0.231879
  N    -5.201937  0.628824  0.031003
  N    -5.902828 -2.415693  3.478074
  N    -6.185588  1.572441  3.723826
  S    -6.753318 -2.767810  2.080448
  S    -6.833479  0.997467  2.318180
  S    -3.839528 -2.801979 -0.694634
  S    -3.575950  1.063152 -0.269444
  S    -4.347989 -2.000412  3.235340
  S    -4.604264  2.034526  3.639145
