16  
    
  C    -2.715332 -1.562075  2.142018
  C    -2.501396  2.432798  2.202224
  C    -3.989188 -1.949660  1.495286
  C    -3.687109  2.012776  1.550861
  N    -1.761248 -1.286130  1.307601
  N    -1.431471  2.508097  1.414692
  N    -3.939405 -1.986649  0.174457
  N    -3.583540  1.858931  0.247204
  N    -4.429913 -1.476709  4.055500
  N    -4.213630  1.855588  4.082228
  S    -5.241145 -2.093832  2.732362
  S    -5.098579  1.743706  2.666578
  S    -2.322524 -1.598853 -0.219290
  S    -2.016969  2.162814 -0.170727
  S    -2.764301 -1.385159  3.867024
  S    -2.620835  2.367115  3.905943
