16  
    
  C     2.162733  1.077186  3.451018
  C     2.051453  4.988599  3.140096
  C     0.895702  0.684285  2.846636
  C     0.881333  4.555078  2.457038
  N     3.202124  1.208426  2.618710
  N     3.087376  5.278406  2.384279
  N     1.014148  0.471476  1.539804
  N     1.086954  4.452148  1.144466
  N     0.522875  1.040308  5.388985
  N     0.316306  4.402580  5.009803
  S    -0.368693  0.508553  4.119045
  S    -0.501081  4.160526  3.522480
  S     2.572645  0.785177  1.130785
  S     2.626536  4.926604  0.823726
  S     2.194957  1.242679  5.135137
  S     1.895900  4.822124  4.830763
