16  
    
  C     1.083093  0.276614  3.060226
  C     0.990680  4.255928  2.615246
  C    -0.104585  0.052202  2.315854
  C    -0.041880  3.376202  2.023813
  N     2.251002  0.302782  2.320292
  N     2.034808  4.294034  1.751755
  N     0.109477 -0.107632  1.018329
  N     0.154307  3.131186  0.725466
  N    -0.901303  0.073060  4.865602
  N    -0.877078  4.191491  4.317799
  S    -1.607261  0.152724  3.347547
  S    -1.388501  3.263257  3.028537
  S     1.753148  0.005928  0.777764
  S     1.698579  3.517144  0.387491
  S     0.804303  0.380630  4.801973
  S     0.723873  4.682585  4.320133
