16  
    
  C     1.547271  0.760238  2.882339
  C     0.872033  3.973896  2.570290
  C     0.364945  0.215929  2.247778
  C    -0.305375  3.419029  1.815847
  N     2.622326  0.734958  2.059925
  N     1.927481  4.064961  1.792385
  N     0.480373 -0.184617  0.998357
  N    -0.222622  3.423437  0.493368
  N    -0.336712  0.769487  4.745602
  N    -0.905982  3.608155  4.358186
  S    -1.090627  0.276498  3.291656
  S    -1.630534  3.172998  2.922878
  S     2.074340  0.044548  0.601522
  S     1.441425  3.708902  0.243290
  S     1.334217  1.134288  4.591770
  S     0.757376  4.052894  4.288774
