16  
    
  C     3.317324  1.465904  3.394546
  C     3.107326  5.045435  3.462257
  C     2.006562  1.343514  2.796354
  C     1.888135  4.495011  2.916125
  N     4.332552  1.469974  2.539366
  N     4.145605  5.072458  2.628245
  N     1.973884  1.197219  1.461374
  N     1.958320  4.399819  1.567225
  N     1.681242  1.802405  5.326522
  N     1.457956  5.000545  5.429595
  S     0.740061  1.645062  4.003434
  S     0.564338  4.682567  4.080785
  S     3.548074  1.341500  1.015909
  S     3.534860  4.730797  1.169597
  S     3.308026  1.727116  5.053286
  S     3.020022  5.354844  5.132522
