16  
    
  C    -3.964387 -1.899876  1.704490
  C    -3.598578  1.951413  1.805625
  C    -5.176422 -2.435790  1.106528
  C    -4.797920  1.436656  1.149414
  N    -2.929212 -1.685321  0.882957
  N    -2.646566  2.280789  0.950857
  N    -5.059836 -2.520576 -0.205406
  N    -4.773687  1.350785 -0.192072
  N    -5.626498 -2.411439  3.634664
  N    -5.174760  1.210788  3.698660
  S    -6.473415 -2.837006  2.232057
  S    -6.099284  1.189112  2.378250
  S    -3.477234 -2.117378 -0.651421
  S    -3.262124  1.955305 -0.643528
  S    -4.069261 -1.888513  3.450121
  S    -3.795159  2.065501  3.535736
