16  
    
  C     1.765295  0.604275  3.025957
  C     1.939553  4.175244  3.369816
  C     0.485884  0.214080  2.438125
  C     0.622786  4.197908  2.683959
  N     2.743075  0.812647  2.138768
  N     2.965511  4.369244  2.506155
  N     0.581151  0.073948  1.135971
  N     0.737646  4.159813  1.311983
  N     0.151022  0.360224  5.036792
  N     0.219851  3.947647  5.210651
  S    -0.804819  0.002061  3.580306
  S    -0.664323  3.739566  3.818184
  S     2.129650  0.470273  0.657405
  S     2.321478  4.377355  1.004520
  S     1.802381  0.459111  4.748550
  S     1.795390  4.269975  5.117072
