16  
    
  C     3.250313  1.534077  3.571584
  C     3.055709  5.086727  3.376400
  C     1.994496  1.110604  3.055359
  C     1.992568  4.400280  2.711335
  N     4.281581  1.578236  2.721726
  N     4.093886  5.476299  2.658054
  N     2.134521  0.851881  1.755992
  N     2.194072  4.335976  1.402367
  N     1.603588  1.472032  5.561486
  N     1.164181  5.086550  5.101739
  S     0.721315  0.958820  4.245237
  S     0.608247  4.136619  3.844864
  S     3.696975  1.117617  1.240941
  S     3.717977  5.002053  1.047418
  S     3.150140  2.009702  5.248362
  S     2.778109  5.366888  5.116260
