16  
    
  C    -0.544579 -0.275015  2.657988
  C    -0.357646  3.314458  2.702784
  C    -1.837871 -0.753141  2.045203
  C    -1.413190  2.657761  2.050302
  N     0.536826 -0.316997  1.829371
  N     0.657460  3.481879  1.871473
  N    -1.773314 -0.859559  0.714125
  N    -1.196046  2.189145  0.841919
  N    -2.275137 -0.711336  4.524217
  N    -2.265287  3.107389  4.489423
  S    -3.163859 -1.031401  3.115385
  S    -2.763145  2.289615  3.097750
  S    -0.136397 -0.663481  0.298760
  S     0.322521  2.780315  0.422774
  S    -0.731731 -0.152795  4.357770
  S    -0.684094  3.785397  4.365896
