16  
    
  C    -4.183095 -2.218799  1.976568
  C    -4.250765  1.453508  1.827483
  C    -5.542555 -2.348797  1.477795
  C    -5.456783  1.210034  1.099785
  N    -3.208490 -2.035757  1.036450
  N    -3.120864  1.417281  1.118378
  N    -5.537116 -2.534945  0.166189
  N    -5.238668  1.089070 -0.221248
  N    -5.741571 -2.245861  4.063795
  N    -6.090170  1.553511  3.630719
  S    -6.782073 -2.323423  2.720394
  S    -6.846261  1.227287  2.158323
  S    -4.032737 -2.269491 -0.415495
  S    -3.627544  1.164002 -0.456951
  S    -4.106985 -1.981632  3.734928
  S    -4.385051  1.479045  3.583908
