16  
    
  C    -0.291823 -0.134542  2.530981
  C    -0.275298  3.213358  2.560367
  C    -1.315847 -0.793647  1.847527
  C    -1.598576  2.941595  1.975253
  N     0.765149  0.052123  1.760563
  N     0.622079  3.549810  1.611919
  N    -1.080601 -1.082391  0.557076
  N    -1.585292  2.639954  0.670902
  N    -2.109154 -0.643921  4.262740
  N    -2.036047  3.183138  4.520456
  S    -2.703493 -1.025043  2.797670
  S    -2.922442  2.903453  3.097715
  S     0.444503 -0.591886  0.250125
  S    -0.080286  3.034954  0.147880
  S    -0.537881 -0.099211  4.270265
  S    -0.406054  3.433467  4.249783
