16  
    
  C     2.818965  1.511525  3.597920
  C     2.955701  5.253956  3.508690
  C     1.646725  0.877085  3.067197
  C     1.761924  4.791482  2.805513
  N     3.728783  1.615703  2.624063
  N     3.944194  5.546477  2.656262
  N     1.659362  0.534926  1.788711
  N     1.860753  4.676321  1.496056
  N     1.045555  1.478942  5.503887
  N     1.030020  5.115762  5.229893
  S     0.368978  0.671108  4.218326
  S     0.432012  4.391805  3.837859
  S     3.128035  1.063834  1.196185
  S     3.362390  5.243170  1.113469
  S     2.695028  1.797715  5.421675
  S     2.733247  5.354826  5.246454
