16  
    
  C    -5.414071 -2.434672  1.343244
  C    -5.435996  1.200244  1.271928
  C    -6.677790 -2.866336  0.736053
  C    -6.569479  0.566539  0.577376
  N    -4.406485 -2.317761  0.506534
  N    -4.395183  1.475570  0.517944
  N    -6.607645 -3.053468 -0.571124
  N    -6.471900  0.518905 -0.749492
  N    -6.913801 -3.010367  3.365322
  N    -7.132737  0.595651  3.145070
  S    -7.860253 -3.281517  1.991195
  S    -7.810024  0.091633  1.688835
  S    -4.997416 -2.670264 -1.025408
  S    -4.894329  1.029350 -1.063729
  S    -5.407936 -2.300810  3.078698
  S    -5.609494  1.181436  3.025754
