16  
    
  C     2.319414  0.947041  3.429554
  C     1.935344  4.832954  2.995328
  C     1.036639  0.634667  2.869613
  C     0.850746  4.088730  2.363968
  N     3.346659  1.022831  2.559613
  N     2.963887  5.094670  2.156258
  N     1.125306  0.417319  1.532842
  N     1.006831  4.082736  1.033731
  N     0.606464  0.821492  5.458469
  N     0.292621  4.330413  4.815092
  S    -0.313669  0.662143  4.029902
  S    -0.542498  4.080172  3.449929
  S     2.651724  0.654566  1.083524
  S     2.548679  4.608118  0.658129
  S     2.254516  1.011902  5.196080
  S     1.804012  5.039879  4.753372
