16  
    
  C     1.168434  0.121683  3.036199
  C     0.626436  3.752812  3.201210
  C    -0.015794 -0.291505  2.399761
  C    -0.439386  3.163176  2.345847
  N     2.212695  0.308971  2.242571
  N     1.637125  4.196713  2.496952
  N     0.101644 -0.559761  1.086235
  N    -0.290543  3.271094  1.038000
  N    -0.615478  0.092122  4.857393
  N    -1.262247  3.034956  4.819159
  S    -1.356071 -0.369136  3.500114
  S    -1.838147  2.763252  3.258633
  S     1.675077 -0.141818  0.700942
  S     1.292794  3.850786  0.841603
  S     0.925473  0.566987  4.667048
  S     0.227563  3.718337  4.911785
