16  
    
  C     0.166877  0.088206  2.708690
  C     0.026134  3.659176  2.702414
  C    -0.967231 -0.580898  2.115571
  C    -1.017530  2.901091  1.999172
  N     1.201416  0.255217  1.881186
  N     1.110063  3.775231  1.967000
  N    -0.848044 -0.698330  0.789566
  N    -0.801262  2.758167  0.691660
  N    -1.541352 -0.287373  4.637859
  N    -1.667294  3.176334  4.520125
  S    -2.276286 -0.915151  3.257594
  S    -2.324616  2.561217  3.106355
  S     0.674641 -0.205685  0.390704
  S     0.720442  3.390818  0.408687
  S    -0.014480  0.328268  4.437924
  S    -0.186564  3.885902  4.413002
