16  
    
  C    -1.004049 -0.827809  2.302847
  C    -0.768053  3.165130  2.668971
  C    -2.220125 -1.267828  1.750976
  C    -1.936619  2.562792  2.033792
  N    -0.040995 -0.572510  1.441179
  N     0.305750  3.136131  1.867956
  N    -2.086416 -1.624395  0.488808
  N    -1.806035  2.244081  0.726447
  N    -2.821877 -0.808867  4.183151
  N    -2.515450  3.030862  4.475323
  S    -3.675113 -1.324557  2.838945
  S    -3.306124  2.670266  3.110692
  S    -0.578204 -1.192592 -0.022901
  S    -0.235140  2.664379  0.348505
  S    -1.229075 -0.332925  3.936190
  S    -0.903387  3.287100  4.381893
