16  
    
  C    -3.835135 -2.309452  1.611161
  C    -3.532917  1.921732  1.562444
  C    -5.172764 -2.463829  1.009635
  C    -4.695675  1.372212  0.995239
  N    -2.817988 -1.947240  0.817319
  N    -2.517971  2.156035  0.749171
  N    -5.074194 -2.401977 -0.306301
  N    -4.605624  1.176854 -0.323327
  N    -5.611400 -2.396072  3.563309
  N    -5.222750  1.564772  3.614605
  S    -6.489683 -2.735454  2.164332
  S    -5.892703  0.967216  2.206876
  S    -3.527900 -2.025261 -0.728406
  S    -3.096768  1.715345 -0.773132
  S    -3.955667 -2.487402  3.394417
  S    -3.661204  2.134804  3.336168
