16  
    
  C     1.392033  0.497059  3.010001
  C     0.949254  4.054176  2.567862
  C     0.200014  0.152207  2.251787
  C    -0.147833  3.437830  1.877977
  N     2.514133  0.347365  2.304976
  N     2.016326  4.261384  1.817797
  N     0.426592 -0.114178  0.966993
  N     0.129836  3.249541  0.600502
  N    -0.599363  0.678001  4.760788
  N    -0.958815  3.697445  4.323740
  S    -1.265715  0.335892  3.245614
  S    -1.607796  3.241780  2.796504
  S     2.064185 -0.040553  0.772751
  S     1.628542  3.820777  0.289905
  S     1.069875  0.929585  4.719718
  S     0.600663  4.178714  4.277995
