16  
    
  C     1.808127  0.474939  3.186914
  C     1.903738  4.594353  3.316300
  C     0.599266  0.127308  2.448920
  C     0.763294  3.964260  2.648138
  N     2.841224  0.743732  2.457890
  N     2.932753  4.835680  2.507536
  N     0.753133  0.250823  1.145289
  N     0.906801  3.921479  1.317862
  N    -0.019372  0.030675  4.915123
  N     0.339133  4.012455  5.268467
  S    -0.763514 -0.278687  3.465807
  S    -0.452356  3.717421  3.799800
  S     2.366606  0.707344  0.875690
  S     2.385561  4.621000  0.980502
  S     1.473396  0.611246  4.851294
  S     1.905028  4.459163  5.063506
