16  
    
  C     0.649798  0.257484  3.071835
  C     0.654892  3.848728  2.903705
  C    -0.610769  0.044902  2.473622
  C    -0.572550  3.588370  2.227493
  N     1.692471  0.213641  2.227457
  N     1.715140  3.926105  2.065040
  N    -0.544178 -0.038197  1.145496
  N    -0.415451  3.195134  0.944196
  N    -1.135524  0.221675  5.020791
  N    -1.040954  3.649088  4.814957
  S    -1.946050  0.112210  3.593786
  S    -1.768580  3.200464  3.429128
  S     1.033377  0.040079  0.685068
  S     1.131268  3.592387  0.585994
  S     0.508151  0.495809  4.800309
  S     0.556775  4.187356  4.640724
