16  
    
  C     1.600198  0.837324  3.244652
  C     2.047771  4.526061  3.232948
  C     0.539153  0.218714  2.477826
  C     0.845939  3.994091  2.668512
  N     2.627650  1.177741  2.524747
  N     3.091809  4.709847  2.402238
  N     0.823341  0.095101  1.182506
  N     0.918543  3.955869  1.360187
  N    -0.224428  0.382654  4.955994
  N     0.259586  4.356648  5.184710
  S    -0.916818 -0.054490  3.530051
  S    -0.544694  3.781854  3.853069
  S     2.331133  0.740653  0.958112
  S     2.438743  4.249266  0.919799
  S     1.267979  1.090719  4.991105
  S     1.824349  4.946315  4.970045
