16  
    
  C    -1.041007 -0.642481  2.397539
  C    -1.211707  3.110844  2.309121
  C    -2.256533 -1.041930  1.682969
  C    -2.470176  2.785825  1.703581
  N    -0.074342 -0.258486  1.523826
  N    -0.150328  2.981221  1.530465
  N    -2.118244 -1.089809  0.354169
  N    -2.434462  2.672844  0.375608
  N    -2.879721 -0.880659  4.148839
  N    -2.929928  3.202414  4.254116
  S    -3.603472 -1.430191  2.780694
  S    -3.803888  2.894138  2.850358
  S    -0.626806 -0.492086 -0.005843
  S    -0.784029  2.727894 -0.014753
  S    -1.354242 -0.286838  4.042973
  S    -1.254669  3.246635  4.057872
