16  
    
  C    -4.744738 -2.385926  1.504159
  C    -4.384025  0.916572  1.801925
  C    -5.927228 -2.823162  0.800233
  C    -5.652078  0.685300  1.145919
  N    -3.714154 -2.109888  0.702825
  N    -3.428085  1.391662  0.982833
  N    -5.830280 -2.749578 -0.503621
  N    -5.548046  0.769688 -0.155277
  N    -6.410177 -2.857294  3.312138
  N    -6.148487  0.642016  3.564504
  S    -7.249788 -3.081540  1.893276
  S    -7.060342  0.442036  2.214202
  S    -4.284955 -2.292675 -0.876410
  S    -4.120366  1.299352 -0.536912
  S    -4.832472 -2.336817  3.287935
  S    -4.587317  1.092614  3.483806
