16  
    
  C    -1.534336 -0.926495  2.202545
  C    -1.779625  2.451192  2.031455
  C    -2.803707 -1.324591  1.677508
  C    -3.027591  2.120853  1.452703
  N    -0.480921 -1.072039  1.366952
  N    -0.777701  2.624835  1.172642
  N    -2.718783 -1.581078  0.345697
  N    -2.966660  1.869774  0.160484
  N    -3.174288 -1.001366  4.158844
  N    -3.434230  2.096858  4.007192
  S    -4.070697 -1.206155  2.794823
  S    -4.351085  1.868940  2.643097
  S    -1.134139 -1.461347 -0.072233
  S    -1.404943  2.130812 -0.309128
  S    -1.555962 -0.950243  3.931272
  S    -1.855023  2.592377  3.763424
