16  
    
  C    -0.371015 -0.382474  2.622756
  C    -0.378304  3.198159  2.587277
  C    -1.588911 -0.856520  1.930997
  C    -1.615569  2.879122  1.964981
  N     0.706417 -0.216632  1.860110
  N     0.699499  3.321659  1.787818
  N    -1.380575 -0.869780  0.609569
  N    -1.436706  2.471131  0.702760
  N    -2.294177 -0.543475  4.358309
  N    -2.116140  3.234687  4.505190
  S    -3.008644 -0.986143  2.939106
  S    -2.873758  2.519615  3.139154
  S     0.208447 -0.484983  0.268625
  S     0.116866  2.913305  0.275926
  S    -0.702103 -0.068042  4.248441
  S    -0.513768  3.686847  4.266394
