16  
    
  C     0.052879 -0.608738  2.473617
  C    -0.232651  3.136008  2.654049
  C    -1.221523 -1.021668  1.904410
  C    -1.415937  2.503808  2.040628
  N     1.059574 -0.580352  1.619775
  N     0.725472  3.288526  1.740781
  N    -1.199028 -1.174957  0.593651
  N    -1.466917  2.589879  0.712397
  N    -1.688332 -0.778673  4.381537
  N    -1.923855  2.864393  4.600066
  S    -2.527725 -1.240136  3.050011
  S    -2.703510  2.321420  3.192834
  S     0.413126 -0.917645  0.082213
  S     0.094475  2.930563  0.241914
  S    -0.055058 -0.349177  4.185342
  S    -0.321560  3.461981  4.370757
