16  
    
  C    -3.037855 -1.663544  2.309311
  C    -3.358355  1.954953  2.005899
  C    -4.293622 -1.839992  1.610792
  C    -4.601203  1.413551  1.495890
  N    -1.990220 -1.505291  1.479134
  N    -2.400386  2.128401  1.107374
  N    -4.211263 -2.020164  0.303471
  N    -4.621027  1.369633  0.164324
  N    -4.834160 -1.788266  4.141776
  N    -4.888176  1.363102  3.997637
  S    -5.652568 -1.787880  2.658479
  S    -5.758470  1.059628  2.649437
  S    -2.600534 -1.804444 -0.083932
  S    -3.078610  1.752476 -0.332469
  S    -3.162093 -1.587113  4.069910
  S    -3.321058  1.874330  3.730622
