16  
    
  C     0.872053  0.302615  2.822181
  C     0.571814  3.503910  2.693710
  C    -0.329228 -0.119240  2.251819
  C    -0.706257  3.403051  2.082230
  N     1.851261  0.610294  2.017080
  N     1.581339  3.669795  1.877709
  N    -0.236149 -0.264728  0.935953
  N    -0.678848  3.316774  0.743030
  N    -0.812429 -0.013036  4.780166
  N    -1.075412  3.257775  4.639391
  S    -1.572925 -0.519228  3.403414
  S    -1.892145  2.940377  3.194519
  S     1.262323  0.215440  0.484609
  S     0.890613  3.653390  0.366986
  S     0.705331  0.510276  4.533291
  S     0.509280  3.540318  4.521932
