16  
    
  C     1.485744  1.005599  3.308903
  C     1.494778  4.283228  3.469709
  C     0.246377  0.534535  2.744504
  C     0.162159  4.179644  2.923867
  N     2.499102  1.053738  2.446807
  N     2.357683  4.470261  2.495007
  N     0.330900  0.192092  1.450519
  N     0.058029  3.994188  1.614005
  N    -0.204154  0.816564  5.252164
  N    -0.057909  4.674776  5.413050
  S    -1.079692  0.547305  3.839675
  S    -0.992459  4.180014  4.169921
  S     1.894414  0.541863  0.989906
  S     1.660544  4.196792  1.040785
  S     1.295554  1.321070  4.987584
  S     1.511016  4.816579  5.119575
