16  
    
  C     0.830949  0.430834  3.049578
  C     0.515534  4.020135  2.916885
  C    -0.439805  0.036925  2.434465
  C    -0.736184  3.396895  2.405162
  N     1.849197  0.466133  2.204451
  N     1.548336  3.832063  2.067672
  N    -0.299924 -0.171402  1.126151
  N    -0.639461  3.040497  1.089143
  N    -0.972694  0.255165  4.868990
  N    -1.160823  3.799223  4.912438
  S    -1.807666  0.122341  3.458113
  S    -1.931859  3.325268  3.571042
  S     1.247767  0.115051  0.678765
  S     0.876799  3.372362  0.638716
  S     0.639774  0.656640  4.733754
  S     0.481049  4.150455  4.704081
