16  
    
  C     0.680356  0.273642  3.035376
  C     0.779913  3.708424  2.817746
  C    -0.638039 -0.011995  2.385932
  C    -0.542638  3.357211  2.272439
  N     1.657696  0.417799  2.151862
  N     1.685012  4.046851  1.895817
  N    -0.564842 -0.304487  1.095220
  N    -0.509441  3.328339  0.971289
  N    -1.026994  0.282907  4.894870
  N    -1.015098  3.565520  4.746341
  S    -1.902089 -0.051327  3.510786
  S    -1.872682  3.235254  3.423186
  S     1.032366 -0.000282  0.693171
  S     0.996309  3.682338  0.449149
  S     0.645995  0.484386  4.755655
  S     0.649647  3.865725  4.563859
