16  
    
  C     0.558515 -0.136283  2.787617
  C     0.277392  3.563066  2.874474
  C    -0.700542 -0.493797  2.197754
  C    -0.908767  3.307165  2.134404
  N     1.535681  0.158928  1.941504
  N     1.292475  3.963922  2.109449
  N    -0.594070 -0.658667  0.895613
  N    -0.732867  3.111586  0.810585
  N    -1.107264 -0.498269  4.704645
  N    -1.540770  3.066720  4.668719
  S    -2.021789 -0.674143  3.321734
  S    -2.214558  2.797758  3.184918
  S     0.931487 -0.166632  0.386094
  S     0.799077  3.681587  0.562676
  S     0.473098  0.001437  4.512966
  S     0.120640  3.478139  4.645883
