16  
    
  C    -4.617281 -2.403658  1.473345
  C    -4.451378  1.297023  1.875863
  C    -5.845684 -2.730425  0.818710
  C    -5.644974  0.794834  1.192447
  N    -3.593433 -1.957115  0.739928
  N    -3.495912  1.652794  1.037906
  N    -5.708409 -2.714362 -0.519539
  N    -5.518834  0.764453 -0.167138
  N    -6.431667 -2.942623  3.291845
  N    -6.110466  0.722020  3.807022
  S    -7.161562 -3.172201  1.835226
  S    -6.854233  0.318153  2.350813
  S    -4.190487 -2.118439 -0.842034
  S    -4.053802  1.338304 -0.511177
  S    -4.929232 -2.301204  3.203040
  S    -4.514838  1.138475  3.712208
