16  
    
  C    -5.342818 -2.442489  1.522763
  C    -5.365010  1.037999  1.384331
  C    -6.595582 -2.819273  0.868533
  C    -6.467848  0.461347  0.730254
  N    -4.429741 -2.026144  0.635168
  N    -4.410405  1.338826  0.496372
  N    -6.496088 -2.981168 -0.467391
  N    -6.378340  0.412868 -0.599300
  N    -7.120701 -2.546949  3.381415
  N    -7.112589  0.901097  3.137401
  S    -7.941679 -2.970551  1.998780
  S    -7.795485  0.268753  1.829422
  S    -5.009506 -2.360028 -0.911242
  S    -4.889472  0.967929 -0.996836
  S    -5.500813 -2.144654  3.218203
  S    -5.507146  1.307478  3.099636
