16  
    
  C     3.311127  1.502072  3.334691
  C     3.094234  5.020136  3.440088
  C     1.987519  1.404336  2.779877
  C     1.833753  4.693558  2.843244
  N     4.293119  1.412763  2.400791
  N     4.140888  5.095252  2.618120
  N     1.979515  1.231875  1.459835
  N     1.945317  4.325539  1.572192
  N     1.634141  1.746298  5.316284
  N     1.418756  5.003342  5.418000
  S     0.760510  1.643572  3.920670
  S     0.529134  4.623557  4.088320
  S     3.570887  1.289324  0.987509
  S     3.562148  4.737800  1.086355
  S     3.266362  1.850566  5.092462
  S     3.045372  5.329568  5.158643
