16  
    
  C     2.461581  0.983100  3.315073
  C     2.420299  4.704354  3.433042
  C     1.249901  0.755845  2.563368
  C     1.268239  4.248530  2.681708
  N     3.529502  1.316266  2.584747
  N     3.482173  5.075521  2.710394
  N     1.383354  0.947223  1.262185
  N     1.490724  4.073329  1.365250
  N     0.686475  0.629564  5.039626
  N     0.531605  4.288794  5.231666
  S    -0.103854  0.329237  3.610522
  S    -0.142664  3.943920  3.716652
  S     3.022808  1.332593  1.002659
  S     2.998755  4.800801  1.143772
  S     2.224734  1.025125  4.983018
  S     2.210719  4.848126  5.105236
