16  
    
  C     1.925603  0.605960  3.166941
  C     1.827931  4.179141  3.144013
  C     0.602693  0.399620  2.644595
  C     0.551647  4.008483  2.546725
  N     2.923551  0.561878  2.294873
  N     2.851982  4.286529  2.328431
  N     0.574164  0.277163  1.292840
  N     0.595909  3.858331  1.260366
  N     0.330011  0.616651  5.214936
  N     0.194121  4.301734  5.010747
  S    -0.552279  0.175791  3.871648
  S    -0.682848  4.032716  3.715685
  S     2.210512  0.306955  0.826104
  S     2.262551  4.028061  0.782892
  S     2.000291  0.773548  4.841494
  S     1.827200  4.350743  4.845027
