16  
    
  C    -2.641962 -1.234822  2.162346
  C    -2.566676  2.357166  2.323215
  C    -3.835886 -1.766853  1.559346
  C    -3.743234  1.798635  1.626359
  N    -1.570131 -1.136799  1.365055
  N    -1.638437  2.844555  1.523806
  N    -3.751121 -1.906252  0.241696
  N    -3.600741  1.810897  0.313287
  N    -4.410719 -1.637691  4.032033
  N    -4.340516  1.998348  4.139854
  S    -5.142271 -2.017114  2.608287
  S    -5.038963  1.524809  2.721677
  S    -2.190586 -1.493543 -0.147410
  S    -2.164436  2.520871 -0.061930
  S    -2.784959 -1.198846  3.916077
  S    -2.762881  2.459350  4.047003
