16  
    
  C     3.762760  2.069113  3.660510
  C     3.493512  5.330398  3.582072
  C     2.594186  1.515514  2.988990
  C     2.243629  4.956092  2.937952
  N     4.816124  2.316547  2.920055
  N     4.564220  5.484797  2.810067
  N     2.885523  1.331792  1.715810
  N     2.389256  4.892232  1.621361
  N     1.793540  1.947587  5.332273
  N     1.808263  4.957823  5.424664
  S     1.122628  1.530725  3.914609
  S     0.933355  4.745307  4.010281
  S     4.362040  1.856461  1.315380
  S     3.935203  5.339321  1.260848
  S     3.406286  2.239787  5.372604
  S     3.450073  5.416460  5.292152
