16  
    
  C    -2.187967 -0.919026  2.299810
  C    -2.074085  2.464435  1.984176
  C    -3.407273 -1.175251  1.601065
  C    -3.310473  1.948179  1.403535
  N    -1.125826 -0.778131  1.502306
  N    -1.072980  2.517665  1.128388
  N    -3.232543 -1.595839  0.324008
  N    -3.283413  1.766642  0.086464
  N    -3.888844 -1.213372  4.191591
  N    -3.824830  2.357811  3.892342
  S    -4.758080 -1.244731  2.747205
  S    -4.669858  1.915699  2.519134
  S    -1.586900 -1.328621 -0.002223
  S    -1.735711  2.074428 -0.371706
  S    -2.310166 -0.696379  4.022713
  S    -2.192567  2.540459  3.660420
