16  
    
  C     1.326336  0.778488  3.206740
  C     1.097700  4.312979  2.966793
  C     0.059095  0.354515  2.648990
  C    -0.052627  3.959309  2.155096
  N     2.363985  0.808850  2.378220
  N     2.128280  4.816158  2.257733
  N     0.091866  0.072090  1.347946
  N     0.156083  3.778348  0.834673
  N    -0.245028  0.757220  5.177618
  N    -0.725183  3.922655  4.693958
  S    -1.184135  0.296983  3.872866
  S    -1.408337  3.593997  3.219752
  S     1.678498  0.310342  0.902141
  S     1.764667  4.313399  0.663769
  S     1.278769  1.194257  4.857644
  S     0.822637  4.357911  4.709192
