16  
    
  C    -1.295608 -0.896226  2.057627
  C    -1.578515  3.251732  1.942430
  C    -2.484294 -1.384845  1.473370
  C    -2.572806  2.367743  1.371094
  N    -0.352636 -0.580078  1.192251
  N    -0.533324  3.566359  1.192985
  N    -2.435313 -1.515749  0.142022
  N    -2.358433  2.139713  0.097650
  N    -2.989195 -1.021861  4.003699
  N    -3.231346  2.681179  3.858663
  S    -3.798971 -1.587496  2.682642
  S    -3.885033  2.032232  2.434991
  S    -0.942640 -1.006852 -0.311240
  S    -0.954241  2.989250 -0.321486
  S    -1.401872 -0.742593  3.842081
  S    -1.734032  3.424423  3.697166
