16  
    
  C    -1.455275 -1.283375  2.141846
  C    -1.705054  2.256107  1.909450
  C    -2.784857 -1.368814  1.521024
  C    -3.022879  2.075152  1.335490
  N    -0.411672 -1.357386  1.345776
  N    -0.701867  2.384230  1.061548
  N    -2.717735 -1.487285  0.232308
  N    -2.975123  2.013129  0.009050
  N    -3.229394 -1.019340  4.055434
  N    -3.451059  2.336674  3.849537
  S    -4.053867 -1.178935  2.653992
  S    -4.293342  1.799661  2.503755
  S    -1.124911 -1.428283 -0.214877
  S    -1.378743  2.257178 -0.443769
  S    -1.609541 -0.779689  3.820487
  S    -1.788550  2.493341  3.627289
