16  
    
  C     2.816879  1.519803  3.571258
  C     2.979224  5.182511  3.474894
  C     1.641593  0.886016  3.070932
  C     1.732351  4.791005  2.810854
  N     3.735337  1.615524  2.585324
  N     3.931666  5.596471  2.602622
  N     1.653569  0.537696  1.797435
  N     1.847553  4.651294  1.488751
  N     1.078680  1.453181  5.505776
  N     1.051726  5.113198  5.247083
  S     0.379556  0.656655  4.211977
  S     0.428980  4.363042  3.855311
  S     3.148707  1.056651  1.202287
  S     3.378710  5.225124  1.075029
  S     2.694624  1.837915  5.401032
  S     2.722765  5.364560  5.229988
