16  
    
  C    -4.193156 -2.550015  1.578727
  C    -4.282389  1.635718  1.954349
  C    -5.471327 -2.952590  0.984659
  C    -5.377129  0.953295  1.377644
  N    -3.244102 -2.312311  0.707883
  N    -3.170311  1.754253  1.240326
  N    -5.301607 -3.288727 -0.311332
  N    -5.180503  0.683745  0.089644
  N    -5.964688 -2.541372  3.485829
  N    -6.245053  1.600667  3.784069
  S    -6.765441 -2.848898  2.057324
  S    -6.838321  0.988489  2.347114
  S    -3.801232 -2.821309 -0.757122
  S    -3.606038  1.130266 -0.310403
  S    -4.328987 -2.040090  3.257187
  S    -4.635942  1.956759  3.622639
