16  
    
  C     2.361152  0.838523  3.523004
  C     1.941897  5.086090  3.036552
  C     1.074396  0.704074  2.913951
  C     0.870928  4.362537  2.438531
  N     3.344770  0.779136  2.628276
  N     2.950797  5.343446  2.254069
  N     1.066610  0.619636  1.604288
  N     1.101021  4.033862  1.197463
  N     0.609802  1.051138  5.466535
  N     0.115944  4.534556  4.804111
  S    -0.188273  0.512659  4.035505
  S    -0.541192  4.171018  3.381141
  S     2.613594  0.609975  1.179705
  S     2.542030  4.734485  0.754114
  S     2.282503  1.064214  5.251974
  S     1.640247  5.145664  4.748602
