16  
    
  C    -4.002081 -1.918377  1.700230
  C    -3.630306  1.856316  1.812437
  C    -5.190456 -2.356686  1.061723
  C    -4.891219  1.378099  1.237561
  N    -2.948562 -1.693447  0.905224
  N    -2.695907  2.210341  0.926973
  N    -5.039911 -2.537055 -0.255632
  N    -4.789157  1.373536 -0.094809
  N    -5.786826 -2.094230  3.571360
  N    -5.306933  1.322342  3.742248
  S    -6.368838 -2.817725  2.210340
  S    -6.190904  1.166102  2.304770
  S    -3.490536 -2.103391 -0.594097
  S    -3.311895  1.922085 -0.534265
  S    -4.153920 -1.750365  3.470448
  S    -3.730539  1.992064  3.543945
