16  
    
  C    -4.938721 -2.530929  1.938833
  C    -5.338776  0.944594  1.757558
  C    -6.123981 -3.038854  1.275534
  C    -6.571289  0.561525  1.108603
  N    -3.863940 -2.510482  1.135671
  N    -4.309114  1.120301  0.953867
  N    -5.968907 -3.182130 -0.035665
  N    -6.458262  0.443175 -0.210824
  N    -6.820484 -2.548842  3.745604
  N    -7.194016  1.035195  3.661755
  S    -7.464714 -3.121083  2.332273
  S    -7.873106  0.607937  2.193396
  S    -4.394031 -2.931658 -0.367830
  S    -4.838446  0.838031 -0.590170
  S    -5.141714 -2.313820  3.650789
  S    -5.512947  1.341098  3.452533
