16  
    
  C    -0.057175 -0.563531  2.477308
  C    -0.196742  3.411437  2.594787
  C    -1.196345 -1.141519  1.848680
  C    -1.146867  2.495619  2.018113
  N     0.953323 -0.227711  1.641256
  N     0.837657  3.680571  1.775401
  N    -1.163782 -1.186035  0.499217
  N    -0.926949  2.253853  0.742309
  N    -1.778620 -0.927163  4.385625
  N    -1.910802  2.837363  4.453122
  S    -2.540866 -1.301637  2.952307
  S    -2.582790  2.323122  2.959960
  S     0.357495 -0.551159  0.126276
  S     0.411661  3.085055  0.296447
  S    -0.207285 -0.550420  4.245635
  S    -0.407943  3.466301  4.288147
