16  
    
  C     0.109389  0.055184  2.748384
  C     0.048153  3.592420  2.664162
  C    -1.001964 -0.622672  2.135755
  C    -1.041389  3.020721  1.981315
  N     1.133458  0.201008  1.902839
  N     1.145264  3.777644  1.929606
  N    -0.930964 -0.682384  0.799496
  N    -0.813993  2.704561  0.703805
  N    -1.560383 -0.283625  4.591510
  N    -1.746305  3.209273  4.479399
  S    -2.267411 -0.919177  3.222388
  S    -2.333299  2.529731  3.121718
  S     0.604177 -0.182665  0.385934
  S     0.675045  3.353064  0.395070
  S    -0.039494  0.378249  4.407798
  S    -0.204311  3.938068  4.384724
