16  
    
  C    -0.140587 -0.150664  2.525018
  C    -0.019404  3.753463  2.427713
  C    -1.428469 -0.465215  2.034545
  C    -1.207757  3.115394  1.826747
  N     0.776306  0.087177  1.559730
  N     0.940957  3.793411  1.531517
  N    -1.423495 -0.786849  0.712379
  N    -1.134313  2.815240  0.532373
  N    -1.709191 -0.315981  4.606478
  N    -1.763309  3.489989  4.336626
  S    -2.636261 -0.714700  3.298222
  S    -2.506357  3.012993  2.933988
  S     0.090149 -0.388608  0.132563
  S     0.396763  3.227736  0.076829
  S    -0.107318 -0.097507  4.278484
  S    -0.118715  4.009542  4.156046
