16  
    
  C    -3.999000 -2.130871  1.742372
  C    -4.029874  1.437907  1.691948
  C    -5.323955 -2.438426  1.182163
  C    -5.272345  1.353552  1.024387
  N    -2.980377 -2.149736  0.839917
  N    -2.996244  1.427517  0.849311
  N    -5.309338 -2.392080 -0.153094
  N    -5.194718  1.098585 -0.275373
  N    -5.710683 -1.781351  3.621332
  N    -5.780358  1.599734  3.481759
  S    -6.635930 -2.279446  2.305940
  S    -6.677846  1.327141  2.101525
  S    -3.739974 -2.243691 -0.623365
  S    -3.560813  1.137261 -0.620470
  S    -4.092435 -1.777628  3.411712
  S    -4.122448  1.673550  3.391948
