16  
    
  C     2.245474  0.940091  3.322788
  C     2.146596  4.501892  2.950565
  C     0.949102  0.610574  2.745212
  C     0.876333  4.168344  2.290689
  N     3.221669  1.076426  2.437469
  N     3.165311  4.631756  2.114169
  N     0.958346  0.485149  1.440038
  N     0.926244  4.054749  0.986420
  N     0.369665  1.018918  5.251414
  N     0.371486  4.427008  4.792025
  S    -0.401490  0.525694  3.813039
  S    -0.372705  3.787459  3.425840
  S     2.555919  0.804812  0.899807
  S     2.563998  4.290301  0.553998
  S     2.057602  1.181556  5.058163
  S     1.969705  4.710234  4.760159
