16  
    
  C     0.904525  0.375457  2.864761
  C     0.613060  3.529000  2.781820
  C    -0.288289 -0.169471  2.225296
  C    -0.707278  3.384174  2.103545
  N     1.934701  0.590372  1.999168
  N     1.627707  3.658254  1.915903
  N    -0.209095 -0.193237  0.892573
  N    -0.654792  3.249622  0.787202
  N    -0.832535 -0.069157  4.809705
  N    -1.217545  3.265490  4.597268
  S    -1.553717 -0.551770  3.386016
  S    -1.955701  2.869067  3.189506
  S     1.341877  0.281729  0.448482
  S     0.958558  3.645733  0.356619
  S     0.719821  0.433257  4.578893
  S     0.460903  3.575424  4.477242
