16  
    
  C    -0.645512 -0.415282  2.657373
  C    -0.377701  3.261588  2.709819
  C    -1.833170 -1.028356  2.098105
  C    -1.439216  2.533391  2.078681
  N     0.384268 -0.320200  1.795156
  N     0.591999  3.677324  1.884572
  N    -1.821654 -1.318411  0.783417
  N    -1.101993  2.176295  0.851234
  N    -2.176714 -0.874424  4.655320
  N    -2.276744  3.049247  4.481604
  S    -3.109930 -0.994140  3.281614
  S    -2.810051  2.309518  3.089666
  S    -0.217910 -0.847837  0.325515
  S     0.416801  2.816952  0.518027
  S    -0.611499 -0.345190  4.423600
  S    -0.713088  3.730969  4.352579
