16  
    
  C     2.706197  1.363978  3.696661
  C     2.886246  5.322155  3.596011
  C     1.489375  0.934415  2.979397
  C     1.733264  4.846403  2.868979
  N     3.763847  1.560117  2.915366
  N     4.002233  5.413401  2.860781
  N     1.628476  0.759296  1.663956
  N     1.916050  4.899642  1.535637
  N     1.024271  1.072196  5.570466
  N     1.136268  4.691491  5.391392
  S     0.196065  0.749583  4.153425
  S     0.303630  4.796511  3.961313
  S     3.186117  1.207004  1.295097
  S     3.536766  5.189242  1.256460
  S     2.651149  1.523950  5.437811
  S     2.674780  5.330652  5.346455
