16  
    
  C    -0.356771 -0.763064  2.712000
  C    -0.417137  3.266663  2.693688
  C    -1.662893 -1.104262  2.131871
  C    -1.497042  2.533650  2.059965
  N     0.593811 -0.775387  1.819713
  N     0.705235  3.456172  1.951807
  N    -1.595613 -1.376334  0.853086
  N    -1.371621  2.519309  0.723373
  N    -2.011758 -0.599449  4.656921
  N    -2.184041  2.999546  4.545968
  S    -2.886741 -1.250093  3.359929
  S    -2.852628  2.361223  3.142694
  S    -0.040710 -1.155588  0.333636
  S     0.232843  2.901903  0.426649
  S    -0.405997 -0.306606  4.401316
  S    -0.650893  3.663829  4.387614
