16  
    
  C    -4.711690 -2.448573  1.537341
  C    -4.427780  0.926708  1.722887
  C    -5.976537 -2.731374  0.821331
  C    -5.690519  0.631232  1.059368
  N    -3.769043 -2.094726  0.698634
  N    -3.426473  1.266084  0.918838
  N    -5.913082 -2.808141 -0.534294
  N    -5.644887  0.768000 -0.282440
  N    -6.431541 -2.791390  3.333258
  N    -6.211520  0.656671  3.612105
  S    -7.253275 -3.076099  1.909438
  S    -7.100051  0.481227  2.192924
  S    -4.300743 -2.392525 -0.837854
  S    -4.073523  1.291745 -0.606540
  S    -4.795085 -2.382946  3.245543
  S    -4.630131  1.065279  3.471960
