16  
    
  C     2.745263  1.376589  3.681863
  C     2.912265  5.308223  3.620513
  C     1.527779  1.002527  3.002543
  C     1.713394  4.985036  2.887245
  N     3.753667  1.525852  2.843832
  N     3.993148  5.352970  2.858132
  N     1.602490  0.818749  1.685892
  N     1.868354  4.818138  1.571741
  N     1.009440  0.941338  5.576923
  N     1.160908  4.703853  5.356908
  S     0.220367  0.746888  4.116823
  S     0.335938  4.849014  3.940069
  S     3.216788  1.213202  1.296423
  S     3.501987  5.161155  1.299949
  S     2.582757  1.482104  5.456838
  S     2.683810  5.310896  5.361411
