16  
    
  C    -0.070035 -0.388039  2.412918
  C    -0.367014  3.426207  2.611572
  C    -1.216884 -0.977134  1.827197
  C    -1.676924  3.089819  2.056050
  N     0.991857 -0.276144  1.627597
  N     0.663523  3.379094  1.764661
  N    -1.163291 -0.957582  0.532278
  N    -1.621700  3.028762  0.715544
  N    -1.901350 -0.605874  4.269320
  N    -2.045050  3.221376  4.597369
  S    -2.566753 -1.300038  2.929167
  S    -2.914167  2.904218  3.195544
  S     0.400435 -0.601697  0.058758
  S    -0.054789  3.235234  0.244084
  S    -0.352547  0.008719  4.071662
  S    -0.405172  3.633943  4.366577
