16  
    
  C    -2.525606 -1.898626  1.941472
  C    -3.083464  2.172044  1.725434
  C    -3.825350 -2.120153  1.338076
  C    -4.177871  1.582819  0.984363
  N    -1.508832 -2.002393  1.065594
  N    -2.052908  2.506059  0.973002
  N    -3.795050 -2.281042  0.013864
  N    -4.009989  1.517620 -0.337983
  N    -4.321861 -1.765443  3.803383
  N    -4.985069  1.599400  3.521123
  S    -5.114413 -1.826249  2.404583
  S    -5.502132  0.993002  2.054261
  S    -2.200862 -2.169294 -0.413204
  S    -2.483584  2.034022 -0.619159
  S    -2.635414 -1.614084  3.658245
  S    -3.396527  2.258407  3.458888
