16  
    
  C    -4.017962 -1.721070  1.684489
  C    -3.761992  1.552753  1.832974
  C    -5.127683 -2.336441  1.001469
  C    -5.069278  1.394916  1.138988
  N    -2.926126 -1.719403  0.937786
  N    -2.799767  1.755494  0.947895
  N    -4.965570 -2.609806 -0.286343
  N    -5.002756  1.259493 -0.173003
  N    -5.799522 -2.037498  3.505812
  N    -5.498362  1.511413  3.657221
  S    -6.570252 -2.359994  2.060587
  S    -6.351229  1.244428  2.254824
  S    -3.385817 -2.224883 -0.581623
  S    -3.455998  1.530840 -0.546422
  S    -4.221982 -1.482332  3.405220
  S    -3.845065  1.747879  3.504209
