16  
    
  C    -5.825440 -2.911965  1.296843
  C    -5.861715  0.805468  1.558648
  C    -6.890714 -3.697051  0.746628
  C    -7.023585  0.188552  0.924292
  N    -4.846839 -2.631928  0.433405
  N    -4.972286  1.241606  0.699689
  N    -6.763439 -3.811209 -0.590623
  N    -6.997188  0.021660 -0.401952
  N    -7.450350 -3.251455  3.242342
  N    -7.529526  0.343582  3.485462
  S    -8.223162 -3.939876  1.908500
  S    -8.359656 -0.161358  2.063383
  S    -5.357285 -3.050014 -1.026503
  S    -5.592276  0.822664 -0.823095
  S    -5.792576 -2.840121  3.042342
  S    -6.010783  1.097546  3.262134
