16  
    
  C    -0.803817 -0.843790  2.506617
  C    -1.000235  3.116936  2.466300
  C    -2.007528 -1.161880  1.756488
  C    -2.268070  2.756762  1.795463
  N     0.219809 -0.533968  1.673062
  N     0.053611  3.056722  1.676986
  N    -1.858967 -1.285061  0.406997
  N    -2.135960  2.664091  0.475638
  N    -2.624828 -1.166514  4.232658
  N    -2.838681  3.220274  4.313004
  S    -3.343167 -1.561793  2.793404
  S    -3.636477  2.861395  2.876603
  S    -0.328820 -0.747881  0.133743
  S    -0.515017  2.706833  0.160874
  S    -1.101827 -0.546395  4.191289
  S    -1.175784  3.379093  4.152372
