16  
    
  C    -3.111852 -1.651596  1.838275
  C    -3.543041  1.562022  2.108762
  C    -4.251383 -2.402841  1.329019
  C    -4.741866  1.170927  1.343910
  N    -2.099758 -1.580235  0.976416
  N    -2.399824  1.672326  1.403642
  N    -4.233890 -2.633311  0.019088
  N    -4.452632  0.760494  0.095145
  N    -4.699287 -2.041818  3.840051
  N    -5.434881  1.405285  3.892633
  S    -5.559771 -2.582079  2.499215
  S    -6.137910  1.065229  2.374958
  S    -2.703716 -2.200741 -0.429291
  S    -2.843870  1.163076 -0.166400
  S    -3.182589 -1.481114  3.527367
  S    -3.794999  1.917977  3.819206
