16  
    
  C    -0.470589 -0.480672  2.668777
  C    -0.346704  3.333081  2.629103
  C    -1.723501 -0.727949  1.929460
  C    -1.426394  2.614366  2.071362
  N     0.557440 -0.356284  1.817904
  N     0.739599  3.417398  1.840349
  N    -1.588452 -0.841325  0.588418
  N    -1.387028  2.477839  0.749259
  N    -2.364771 -0.576666  4.455114
  N    -2.178056  3.163029  4.437471
  S    -2.990630 -0.995092  2.984350
  S    -2.787230  2.386886  3.142023
  S    -0.018918 -0.528886  0.297279
  S     0.204036  2.777705  0.366789
  S    -0.761745 -0.050451  4.363338
  S    -0.647809  3.749279  4.310121
