16  
    
  C     3.136724  1.608861  3.717711
  C     3.158546  5.262028  3.405799
  C     1.990152  1.106463  3.040631
  C     1.994285  4.663337  2.740543
  N     4.165538  1.805207  2.944296
  N     4.263104  5.192037  2.683583
  N     2.206757  0.798288  1.766054
  N     2.148779  4.475282  1.417157
  N     1.311024  1.641111  5.482868
  N     1.365697  4.870845  5.253157
  S     0.555892  1.139535  4.114449
  S     0.646611  4.453723  3.825494
  S     3.765537  1.296559  1.417780
  S     3.760656  4.817881  1.091597
  S     2.928829  1.843509  5.384141
  S     2.943373  5.269325  5.090027
