16  
    
  C    -1.452195 -1.175470  2.591469
  C    -1.458847  2.691788  2.314781
  C    -2.568580 -1.537218  1.728703
  C    -2.546991  1.962438  1.610187
  N    -0.340206 -0.804697  1.906179
  N    -0.368042  2.831958  1.563263
  N    -2.260496 -1.655525  0.399762
  N    -2.365895  1.800213  0.300863
  N    -3.408769 -1.581055  4.171016
  N    -3.440077  2.455203  4.010970
  S    -3.940700 -1.950318  2.624739
  S    -4.012645  1.750373  2.597517
  S    -0.670388 -1.124042  0.308539
  S    -0.799817  2.324874  0.029160
  S    -1.828387 -0.966161  4.267974
  S    -1.882739  3.026647  3.926814
