16  
    
  C     2.201276  0.934344  3.387621
  C     2.078451  4.628831  2.924266
  C     0.941080  0.558629  2.760299
  C     0.808417  4.300006  2.321720
  N     3.222408  1.128490  2.560386
  N     3.144145  4.765225  2.131087
  N     1.028097  0.364682  1.456564
  N     0.953805  4.079265  1.007449
  N     0.592509  0.940805  5.251597
  N     0.293082  4.414053  4.895203
  S    -0.333116  0.635026  3.916444
  S    -0.418065  3.856908  3.440224
  S     2.603495  0.743187  1.067014
  S     2.487696  4.460828  0.649409
  S     2.170453  1.037284  5.117358
  S     1.930504  4.847625  4.653102
