16  
    
  C     2.038412  0.837566  2.992263
  C     2.239435  4.299669  3.079299
  C     0.784616  0.511282  2.374401
  C     1.087651  4.061946  2.280461
  N     3.102172  0.791072  2.211550
  N     3.356769  4.489402  2.357265
  N     0.909003  0.220792  1.073542
  N     1.346779  3.820152  0.986757
  N     0.162900  0.962452  4.918474
  N     0.253151  4.370436  4.722651
  S    -0.592928  0.706390  3.491106
  S    -0.403605  3.925277  3.306119
  S     2.481831  0.426880  0.729673
  S     2.937918  4.026104  0.825887
  S     1.844970  1.336729  4.662108
  S     1.817560  4.810166  4.678707
