16  
    
  C     2.011631  1.141123  3.076715
  C     2.191083  4.310868  2.995970
  C     0.778280  0.709221  2.454252
  C     1.026762  3.943989  2.276779
  N     3.087925  1.225053  2.249230
  N     3.242932  4.570707  2.210403
  N     0.937716  0.512370  1.137409
  N     1.292285  3.583674  0.986117
  N     0.296655  0.921750  4.948592
  N     0.258783  4.247856  4.815827
  S    -0.536258  0.470219  3.661052
  S    -0.402820  3.900089  3.298781
  S     2.487767  0.787013  0.783549
  S     2.850828  4.028301  0.707822
  S     1.865982  1.414838  4.796137
  S     1.981883  4.561412  4.749072
