16  
    
  C     1.598484  0.630616  2.841651
  C     0.850652  3.865350  2.514929
  C     0.359981  0.234659  2.182392
  C    -0.315468  3.427834  1.880577
  N     2.565030  0.831464  1.954129
  N     1.787427  4.162891  1.628024
  N     0.428233  0.133436  0.883034
  N    -0.201463  3.192940  0.559041
  N    -0.109920  0.596740  4.718257
  N    -0.784898  3.704103  4.376868
  S    -0.928309 -0.007488  3.387484
  S    -1.605821  3.163855  3.010328
  S     2.004792  0.493768  0.471309
  S     1.324134  3.647076  0.174506
  S     1.457328  1.007774  4.514245
  S     0.749835  4.190326  4.223239
