16  
    
  C    -4.221663 -2.068175  2.061526
  C    -4.157060  1.445437  1.888370
  C    -5.511338 -2.295801  1.499174
  C    -5.456906  1.092987  1.270684
  N    -3.231374 -1.985823  1.198622
  N    -3.113864  1.378775  1.045450
  N    -5.513198 -2.424065  0.167784
  N    -5.358136  1.030499 -0.060667
  N    -5.967317 -1.963444  3.956171
  N    -5.936940  1.382280  3.841727
  S    -6.842450 -2.498299  2.631392
  S    -6.740658  1.081396  2.414924
  S    -3.908381 -2.197964 -0.292669
  S    -3.692824  1.183042 -0.467629
  S    -4.294086 -1.759126  3.795364
  S    -4.323741  1.681615  3.701769
