16  
    
  C    -0.921538 -0.753377  2.273809
  C    -0.703440  3.027868  2.417073
  C    -1.960422 -1.537398  1.727772
  C    -1.943916  2.575864  1.858311
  N     0.170903 -0.626323  1.504462
  N     0.256898  3.274816  1.539770
  N    -1.726729 -1.882868  0.438541
  N    -1.913747  2.464468  0.561300
  N    -2.745665 -0.960238  4.095408
  N    -2.412913  2.729024  4.337928
  S    -3.434942 -1.477917  2.624101
  S    -3.264094  2.530695  2.980573
  S    -0.267214 -1.259963  0.042360
  S    -0.368092  2.772498  0.071570
  S    -1.212270 -0.332173  3.971265
  S    -0.859294  3.232320  4.203387
