16  
    
  C    -5.790863 -3.014026  1.538805
  C    -6.072170  0.759745  1.347693
  C    -6.939939 -3.497815  0.795299
  C    -7.275008  0.294654  0.721109
  N    -4.665423 -2.967966  0.813982
  N    -5.157873  1.187099  0.492074
  N    -6.730027 -3.609464 -0.508681
  N    -7.189721  0.250254 -0.618585
  N    -7.812158 -3.133184  3.192101
  N    -7.700852  0.238427  3.228142
  S    -8.404973 -3.384030  1.647024
  S    -8.533813 -0.024587  1.835512
  S    -5.145325 -3.245781 -0.775594
  S    -5.740214  0.918620 -0.990920
  S    -6.174909 -3.056643  3.262832
  S    -6.106406  0.807008  3.105230
