16  
    
  C    -0.163962 -0.212953  2.730432
  C     0.161446  3.380201  2.292334
  C    -1.378168 -0.638690  2.038586
  C    -1.083038  3.222889  1.670580
  N     0.955408 -0.116490  1.968033
  N     1.087330  3.809513  1.447497
  N    -1.169810 -0.845366  0.739786
  N    -1.030804  3.116987  0.326579
  N    -2.065139 -0.592512  4.475489
  N    -1.488520  3.037617  4.208110
  S    -2.782334 -0.860651  2.990120
  S    -2.353678  2.926883  2.835874
  S     0.408229 -0.536812  0.491988
  S     0.566647  3.475718 -0.071381
  S    -0.427846 -0.299445  4.403859
  S     0.125274  3.414978  4.062729
