16  
    
  C     2.509486  1.216801  3.369014
  C     2.839089  5.178258  3.786352
  C     1.382881  0.650673  2.605553
  C     1.674705  4.475169  3.321610
  N     3.626642  1.440100  2.675921
  N     3.817642  5.289712  2.871914
  N     1.677617  0.297444  1.353434
  N     1.686028  4.254779  2.011103
  N     0.570503  0.847904  4.995262
  N     1.158052  4.926312  5.829312
  S    -0.033974  0.490312  3.554925
  S     0.344860  4.547395  4.417409
  S     3.244311  0.771763  1.091000
  S     3.212160  4.630087  1.437456
  S     2.135980  1.378447  5.098259
  S     2.643469  5.686581  5.431933
