16  
    
  C    -2.660978 -1.393124  2.161709
  C    -2.575786  2.316428  2.254226
  C    -3.920167 -1.817929  1.509865
  C    -3.758952  1.899082  1.572259
  N    -1.665529 -1.205723  1.340456
  N    -1.594740  2.724843  1.452363
  N    -3.778370 -1.952187  0.209021
  N    -3.628319  1.820070  0.265752
  N    -4.402346 -1.500549  4.073422
  N    -4.258609  1.915011  4.088627
  S    -5.252983 -2.055789  2.727626
  S    -5.055927  1.628271  2.670373
  S    -2.222105 -1.530092 -0.187922
  S    -2.067510  2.383297 -0.045468
  S    -2.789728 -1.304558  3.856033
  S    -2.682740  2.413296  3.990462
