16  
    
  C    -2.862227 -1.478313  2.036473
  C    -3.184596  1.984427  1.893001
  C    -4.101842 -1.849634  1.383451
  C    -4.284952  1.461305  1.131580
  N    -1.866418 -1.253288  1.183010
  N    -2.026486  2.058008  1.195250
  N    -3.990715 -2.122279  0.079278
  N    -4.091661  1.344379 -0.201690
  N    -4.575618 -1.684092  3.945807
  N    -5.168716  1.761586  3.547352
  S    -5.396604 -1.949502  2.520341
  S    -5.729528  1.145671  2.108733
  S    -2.471582 -1.628196 -0.298252
  S    -2.490981  1.569469 -0.364247
  S    -3.011457 -1.196822  3.739355
  S    -3.529140  2.034921  3.560722
