16  
    
  C     2.536728  1.077021  3.324050
  C     2.996506  5.410567  3.943781
  C     1.327042  0.616050  2.623710
  C     1.740709  5.026975  3.359621
  N     3.621683  1.195085  2.542062
  N     3.982046  5.491662  3.024514
  N     1.471529  0.422829  1.326812
  N     1.878654  4.485882  2.145638
  N     0.432887  1.148928  4.965983
  N     1.140000  5.660034  5.717968
  S    -0.165882  0.426265  3.588419
  S     0.402247  4.845755  4.468483
  S     3.043713  0.740553  0.942785
  S     3.423227  4.780868  1.600517
  S     2.151188  1.355998  5.023226
  S     2.752473  5.849533  5.649747
