16  
    
  C     3.601990  2.167103  3.590787
  C     3.475988  5.289679  3.559590
  C     2.459050  1.607595  2.906307
  C     2.212322  5.017866  2.940574
  N     4.684931  2.344210  2.815865
  N     4.454062  5.578981  2.648302
  N     2.715286  1.310819  1.629644
  N     2.243672  4.843313  1.632179
  N     1.789728  1.922281  5.411837
  N     1.713907  4.890520  5.498804
  S     1.144356  1.377721  3.936126
  S     0.952590  4.609638  4.019769
  S     4.325712  1.737731  1.367331
  S     3.816504  5.191410  1.177204
  S     3.446503  2.185211  5.339525
  S     3.264499  5.361830  5.321916
