16  
    
  C    -1.054856 -0.461523  2.452496
  C    -1.086742  3.178258  2.434890
  C    -2.161648 -0.979885  1.710224
  C    -2.358856  2.745586  1.784607
  N    -0.040044 -0.130021  1.611890
  N    -0.040464  3.035569  1.612209
  N    -1.953525 -1.179087  0.401092
  N    -2.285957  2.457603  0.480276
  N    -2.770461 -1.063590  4.211253
  N    -2.952106  3.162859  4.213023
  S    -3.434660 -1.458806  2.764539
  S    -3.770059  3.053080  2.777791
  S    -0.440219 -0.633492  0.103462
  S    -0.680262  2.677505  0.087958
  S    -1.176502 -0.549172  4.204390
  S    -1.296310  3.279158  4.120632
