16  
    
  C    -4.717708 -2.509172  1.450480
  C    -4.553778  1.061879  1.550539
  C    -6.036783 -2.766708  0.864889
  C    -5.849515  0.879134  0.926319
  N    -3.718444 -2.340231  0.598026
  N    -3.486978  1.220621  0.774145
  N    -5.955812 -2.991655 -0.455659
  N    -5.759806  0.862320 -0.405982
  N    -6.448359 -2.700096  3.416331
  N    -6.351175  0.728455  3.344326
  S    -7.304383 -3.028395  2.039818
  S    -7.211116  0.585794  1.951268
  S    -4.347274 -2.657652 -0.921599
  S    -4.145849  0.994820 -0.732683
  S    -4.797922 -2.523756  3.263498
  S    -4.698248  0.930712  3.284973
