16  
    
  C     3.542998  2.170318  3.578511
  C     3.443185  5.278755  3.505290
  C     2.445117  1.596431  2.889151
  C     2.170737  4.991225  2.925701
  N     4.612238  2.286941  2.828626
  N     4.400565  5.619282  2.658305
  N     2.705720  1.339634  1.607562
  N     2.225944  4.830905  1.598626
  N     1.840771  1.816749  5.421299
  N     1.632586  4.889573  5.500000
  S     1.147456  1.343448  3.995056
  S     0.928978  4.572535  4.037913
  S     4.286139  1.711434  1.352426
  S     3.791507  5.149151  1.126742
  S     3.447154  2.173241  5.321902
  S     3.232483  5.355372  5.328133
