16  
    
  C     2.018401  1.191969  3.038427
  C     2.251030  4.457449  3.051000
  C     0.798788  0.671982  2.460401
  C     1.105260  3.830979  2.357392
  N     3.034498  1.286624  2.184159
  N     3.331841  4.495223  2.287485
  N     0.903903  0.339580  1.170915
  N     1.240330  3.727424  1.046862
  N     0.232491  1.050014  4.978648
  N     0.292924  4.349399  4.739451
  S    -0.535792  0.528613  3.541336
  S    -0.366605  3.880612  3.262248
  S     2.488469  0.734722  0.690974
  S     2.906753  3.955287  0.741237
  S     1.819288  1.342300  4.749141
  S     1.871084  4.566809  4.727564
