16  
    
  C     1.179288  0.186053  2.975434
  C     0.681112  3.858025  3.168747
  C    -0.075581 -0.409250  2.433524
  C    -0.488151  3.324434  2.504692
  N     2.116114  0.320937  2.054856
  N     1.772597  4.064060  2.456067
  N     0.046770 -0.819178  1.173176
  N    -0.359824  3.340706  1.216907
  N    -0.499325  0.204123  4.906708
  N    -1.025102  3.226354  5.012838
  S    -1.314800 -0.496295  3.630383
  S    -1.879035  2.968813  3.518247
  S     1.562113 -0.338642  0.602485
  S     1.244216  3.778408  0.870559
  S     1.079663  0.606382  4.701113
  S     0.536985  3.619294  4.855222
