16  
    
  C    -3.981078 -1.892275  1.709302
  C    -3.738573  1.753922  1.767517
  C    -5.189969 -2.337957  1.024745
  C    -5.003305  1.336672  1.202476
  N    -2.938556 -1.682373  0.937873
  N    -2.680573  1.833712  0.967477
  N    -4.961446 -2.635638 -0.261914
  N    -4.973867  1.359409 -0.115907
  N    -5.840226 -1.943818  3.527252
  N    -5.483553  1.584515  3.702182
  S    -6.496299 -2.441301  2.108623
  S    -6.336815  1.167112  2.334140
  S    -3.369294 -2.153297 -0.606720
  S    -3.372977  1.617159 -0.615770
  S    -4.274310 -1.492390  3.385955
  S    -3.856847  1.740106  3.559080
