16  
    
  C     2.076423  0.584672  3.216886
  C     2.019433  4.403776  3.022317
  C     0.764355  0.253875  2.660198
  C     0.757281  3.901570  2.457052
  N     3.017304  0.713956  2.301798
  N     3.075067  4.305930  2.173326
  N     0.775165  0.012926  1.377222
  N     0.810156  3.838417  1.095275
  N     0.403851  0.737289  5.103014
  N     0.281419  4.263587  4.995501
  S    -0.492069  0.625251  3.779832
  S    -0.538063  3.959104  3.552539
  S     2.292674  0.362204  0.877309
  S     2.366371  3.925464  0.742515
  S     2.047160  0.874902  4.916464
  S     1.858405  4.778631  4.742227
