16  
    
  C    -1.997722 -1.079931  2.162580
  C    -1.820444  2.290713  2.028530
  C    -3.257197 -1.372093  1.553523
  C    -3.068907  1.983120  1.324881
  N    -0.974369 -0.976432  1.384448
  N    -0.700037  2.319446  1.292397
  N    -3.216466 -1.391310  0.243113
  N    -2.864474  1.844582  0.024373
  N    -3.670508 -0.916278  4.137599
  N    -3.689523  2.132668  3.765445
  S    -4.560535 -1.203582  2.773360
  S    -4.433445  1.809486  2.314828
  S    -1.592463 -1.223940 -0.167361
  S    -1.276799  2.126667 -0.300303
  S    -2.025849 -0.823886  3.866807
  S    -2.060840  2.411572  3.746311
