16  
    
  C    -4.725538 -2.710871  1.511014
  C    -4.680046  1.086033  1.460649
  C    -6.016209 -3.074265  0.925930
  C    -5.919136  0.963708  0.742093
  N    -3.708041 -2.603442  0.642116
  N    -3.593140  1.157963  0.659768
  N    -6.000203 -3.017631 -0.408630
  N    -5.732205  0.767078 -0.570101
  N    -6.403996 -2.727168  3.414358
  N    -6.426837  0.741081  3.324313
  S    -7.271414 -2.954195  2.027337
  S    -7.214195  0.670620  1.859935
  S    -4.432714 -2.764973 -0.850593
  S    -4.170668  0.912969 -0.865278
  S    -4.765609 -2.487407  3.202691
  S    -4.806237  0.918118  3.244337
