16  
    
  C     2.564250  1.133014  3.363301
  C     2.910219  5.211723  3.726369
  C     1.411411  0.645330  2.599364
  C     1.594290  5.264901  3.126572
  N     3.679796  1.413530  2.681985
  N     3.918719  5.042997  2.890877
  N     1.621155  0.656088  1.286125
  N     1.597167  4.754177  1.897868
  N     0.674428  0.791780  5.149296
  N     1.369198  5.457703  5.661210
  S     0.021052  0.170273  3.719200
  S     0.352242  5.409837  4.369788
  S     3.207142  1.079539  1.024481
  S     3.187617  4.629691  1.421397
  S     2.294030  1.199493  5.025998
  S     3.019720  5.509419  5.394523
