16  
    
  C     0.904712  0.373733  2.868839
  C     0.610881  3.518469  2.778840
  C    -0.294265 -0.167439  2.225676
  C    -0.712468  3.399562  2.098837
  N     1.929041  0.591283  1.999268
  N     1.627374  3.657570  1.913624
  N    -0.207709 -0.196420  0.896547
  N    -0.660885  3.247462  0.785555
  N    -0.830767 -0.064076  4.811955
  N    -1.208688  3.264552  4.597156
  S    -1.553440 -0.549835  3.388620
  S    -1.949724  2.873554  3.189546
  S     1.335246  0.276248  0.448708
  S     0.953247  3.648289  0.355392
  S     0.715800  0.437838  4.571656
  S     0.466162  3.573204  4.482256
