16  
    
  C    -2.965959 -1.917136  2.068045
  C    -3.360801  1.557360  2.085394
  C    -4.278640 -2.114114  1.480837
  C    -4.673608  1.310036  1.463070
  N    -1.911178 -1.860766  1.237545
  N    -2.347376  1.671954  1.224616
  N    -4.244336 -2.141239  0.143861
  N    -4.647357  1.109657  0.141563
  N    -4.600804 -1.977100  4.038374
  N    -5.041439  1.648543  3.973654
  S    -5.548915 -2.161683  2.678583
  S    -5.934136  1.126454  2.666124
  S    -2.644564 -2.012017 -0.283004
  S    -3.067525  1.393918 -0.304171
  S    -3.011874 -1.587652  3.827611
  S    -3.369527  1.742531  3.818636
