16  
    
  C     1.587685  0.853850  3.257484
  C     2.073746  4.455194  3.277561
  C     0.504549  0.264727  2.482164
  C     0.776144  4.049764  2.692862
  N     2.676712  1.176979  2.510050
  N     3.046732  4.757467  2.429573
  N     0.756405  0.135129  1.182481
  N     0.883855  3.889713  1.384107
  N    -0.265067  0.373207  4.957112
  N     0.276235  4.415422  5.158735
  S    -0.932986 -0.017510  3.537914
  S    -0.543214  3.836824  3.831617
  S     2.283526  0.752435  0.953323
  S     2.439713  4.215275  0.906738
  S     1.278275  1.152504  4.979902
  S     1.795806  4.935843  4.985495
