16  
    
  C    -1.568724 -1.137405  2.280012
  C    -1.857555  2.492493  2.190062
  C    -2.860459 -1.361877  1.711402
  C    -3.038276  2.016667  1.535852
  N    -0.560518 -0.989319  1.397107
  N    -0.843939  2.639738  1.386778
  N    -2.820120 -1.585066  0.391631
  N    -2.926889  1.695564  0.261121
  N    -3.250255 -0.903338  4.232304
  N    -3.533681  2.170579  4.096032
  S    -4.159197 -1.243975  2.899173
  S    -4.335057  1.823997  2.690502
  S    -1.238354 -1.380720 -0.111608
  S    -1.363315  2.172265 -0.136240
  S    -1.565015 -0.911648  4.040295
  S    -1.908909  2.579875  3.915416
