16  
    
  C    -2.490592 -1.203722  2.157087
  C    -2.770760  2.686318  2.372329
  C    -3.685934 -1.661350  1.460266
  C    -3.800652  1.891957  1.720536
  N    -1.464511 -0.908784  1.394626
  N    -1.808623  3.020194  1.513897
  N    -3.419944 -1.874390  0.186064
  N    -3.743366  1.825136  0.367681
  N    -4.162078 -1.769467  4.085225
  N    -4.382225  2.063479  4.260838
  S    -4.955478 -2.104942  2.639416
  S    -4.989804  1.363104  2.843389
  S    -1.878449 -1.257736 -0.145453
  S    -2.245520  2.489540  0.032720
  S    -2.735041 -0.950005  3.828596
  S    -2.841501  2.724434  4.087249
