16  
    
  C     2.754749  1.119637  3.558021
  C     2.946590  4.861286  3.676177
  C     1.575000  0.713145  2.828493
  C     1.639413  4.927563  3.068793
  N     3.726195  1.561065  2.742119
  N     3.942801  4.875964  2.795858
  N     1.728990  0.784031  1.512184
  N     1.634461  4.871555  1.742128
  N     0.756653  0.839035  5.233084
  N     1.280046  5.494623  5.467625
  S     0.098248  0.432691  3.741135
  S     0.314336  5.242679  4.161748
  S     3.252177  1.373456  1.234462
  S     3.203973  4.845888  1.313721
  S     2.416949  1.053327  5.264560
  S     2.915455  5.331222  5.347912
