16  
    
  C     2.179786  1.309003  3.409847
  C     2.249365  4.790496  3.249255
  C     1.005878  0.827935  2.743543
  C     1.047790  4.264963  2.597520
  N     3.183680  1.606844  2.611105
  N     3.318993  4.915478  2.447185
  N     1.169587  0.665042  1.438633
  N     1.042763  4.409367  1.255208
  N     0.509079  0.722686  5.315978
  N     0.621998  4.243922  5.084984
  S    -0.264439  0.491422  3.793179
  S    -0.138564  3.857735  3.735110
  S     2.785088  1.153172  1.116361
  S     2.649015  4.840556  0.955388
  S     2.116927  1.046086  5.121056
  S     2.208753  4.730107  4.983171
