16  
    
  C    -5.818492 -2.922477  1.310269
  C    -5.869134  0.801683  1.556724
  C    -6.892396 -3.687056  0.753796
  C    -7.031506  0.194342  0.917922
  N    -4.839171 -2.646010  0.441661
  N    -4.996520  1.245772  0.687895
  N    -6.759898 -3.808068 -0.572632
  N    -7.004492  0.023161 -0.410770
  N    -7.452526 -3.273173  3.248454
  N    -7.516251  0.327579  3.495830
  S    -8.218700 -3.939257  1.899388
  S    -8.361905 -0.172008  2.061954
  S    -5.356755 -3.061863 -1.015376
  S    -5.607822  0.820825 -0.822194
  S    -5.803365 -2.837448  3.050807
  S    -6.009830  1.099955  3.261484
