16  
    
  C     0.907718  0.197875  2.858945
  C     0.571288  3.598549  2.970710
  C    -0.333232 -0.340972  2.258765
  C    -0.820038  3.595445  2.424065
  N     1.909039  0.355333  1.993942
  N     1.447443  3.995171  2.065119
  N    -0.289314 -0.508578  0.931470
  N    -0.894312  3.729961  1.118118
  N    -0.848251 -0.007346  4.812586
  N    -1.160548  3.311138  4.932932
  S    -1.688736 -0.182392  3.396509
  S    -2.085490  3.326345  3.567140
  S     1.256863 -0.054013  0.523199
  S     0.721062  3.873898  0.561555
  S     0.761795  0.316514  4.610220
  S     0.527037  3.393513  4.647731
