16  
    
  C    -2.691466 -1.496851  2.151551
  C    -2.561061  2.376931  2.229195
  C    -3.962013 -1.808261  1.524872
  C    -3.783731  1.885954  1.571222
  N    -1.697832 -1.205129  1.311099
  N    -1.538423  2.671572  1.439729
  N    -3.808809 -1.971584  0.211403
  N    -3.622928  1.838164  0.264128
  N    -4.422034 -1.478591  4.077643
  N    -4.254512  1.884268  4.098601
  S    -5.261096 -2.067229  2.741839
  S    -5.070723  1.658969  2.658016
  S    -2.223091 -1.542064 -0.201462
  S    -2.046777  2.334088 -0.064477
  S    -2.778150 -1.325410  3.853468
  S    -2.655596  2.401788  3.967747
