16  
    
  C    -1.014943 -0.718033  2.299649
  C    -0.754004  3.096400  2.605721
  C    -2.246531 -1.373241  1.731756
  C    -1.934516  2.575095  2.006759
  N    -0.000376 -0.625601  1.421164
  N     0.304118  3.070556  1.814767
  N    -2.170593 -1.635416  0.432267
  N    -1.798227  2.273041  0.732946
  N    -2.859711 -0.737456  4.168514
  N    -2.527230  2.996304  4.431633
  S    -3.614541 -1.393705  2.808539
  S    -3.318746  2.599368  3.062270
  S    -0.566407 -1.235674 -0.023461
  S    -0.260636  2.683562  0.316100
  S    -1.239100 -0.308945  3.941836
  S    -0.927075  3.278089  4.376333
