16  
    
  C    -5.397983 -2.820091  1.525661
  C    -5.532636  1.069225  1.308959
  C    -6.650145 -3.099889  0.825211
  C    -6.685636  0.540114  0.633164
  N    -4.340157 -2.686943  0.740977
  N    -4.474532  1.353321  0.559758
  N    -6.540420 -3.298727 -0.480282
  N    -6.523778  0.402028 -0.651848
  N    -7.132206 -3.094398  3.390625
  N    -7.274110  0.590483  3.182869
  S    -7.920535 -3.571056  1.959703
  S    -7.934865  0.054608  1.738865
  S    -4.900696 -2.976908 -0.829294
  S    -4.974705  0.935046 -1.004798
  S    -5.540650 -2.609717  3.244710
  S    -5.747598  1.150315  3.035863
