16  
    
  C    -2.209502 -1.159692  2.131958
  C    -2.731721  2.651511  2.291668
  C    -3.357879 -1.769337  1.524443
  C    -3.839060  1.850079  1.740657
  N    -1.362096 -0.664418  1.253526
  N    -1.736780  2.908518  1.424755
  N    -3.265408 -1.933663  0.239863
  N    -3.731944  1.740746  0.404346
  N    -4.074297 -1.554319  3.975287
  N    -4.403880  2.174177  4.250014
  S    -4.631147 -2.335118  2.555682
  S    -5.065358  1.490332  2.846516
  S    -1.879986 -1.198930 -0.248578
  S    -2.280394  2.414396 -0.023715
  S    -2.510557 -0.974939  3.889803
  S    -2.886214  2.846735  4.033385
