16  
    
  C    -5.770462 -2.610483  1.372283
  C    -5.557596  0.759886  1.539984
  C    -6.964460 -3.086671  0.701350
  C    -6.786947  0.463166  0.851496
  N    -4.712561 -2.488318  0.565815
  N    -4.473429  0.894713  0.745282
  N    -6.852595 -3.205161 -0.599505
  N    -6.687763  0.238489 -0.473978
  N    -7.591751 -3.020976  3.182289
  N    -7.449001  0.635660  3.343378
  S    -8.379551 -3.378254  1.699964
  S    -8.164105  0.278941  1.868760
  S    -5.292375 -2.806428 -0.990593
  S    -5.074212  0.591274 -0.826710
  S    -5.945076 -2.536311  3.141410
  S    -5.788830  1.093882  3.217877
