16  
    
  C    -0.910681 -0.682353  2.385348
  C    -0.787945  3.038666  2.463537
  C    -1.932842 -1.349417  1.696793
  C    -2.055526  2.741365  1.829237
  N     0.191083 -0.597535  1.629834
  N     0.174201  3.254319  1.592030
  N    -1.736043 -1.574331  0.358189
  N    -2.026126  2.517156  0.512542
  N    -2.742256 -0.832883  4.110365
  N    -2.486156  2.851300  4.380679
  S    -3.301667 -1.603834  2.750313
  S    -3.406147  2.627227  3.018688
  S    -0.174290 -1.135178  0.117543
  S    -0.432981  2.864290  0.078101
  S    -1.066705 -0.585844  4.117727
  S    -0.909656  3.333914  4.138292
