16  
    
  C    -0.052031  0.028878  2.588210
  C    -0.035852  3.582613  2.568883
  C    -1.286906 -0.514569  2.036932
  C    -1.190852  3.050130  1.915779
  N     0.883342  0.267520  1.701849
  N     0.971709  3.817579  1.730662
  N    -1.238234 -0.740538  0.735368
  N    -0.979411  2.550017  0.673064
  N    -1.604839 -0.428669  4.643063
  N    -1.751596  3.468907  4.440162
  S    -2.492821 -0.819191  3.311279
  S    -2.449581  2.683373  3.070929
  S     0.280700 -0.249131  0.198133
  S     0.541705  3.191031  0.252850
  S    -0.124963  0.267993  4.342751
  S    -0.243565  4.086893  4.224251
