16  
    
  C     2.826059  1.488479  3.622378
  C     2.917054  5.335662  3.521321
  C     1.628655  0.862968  3.072993
  C     1.794903  4.777381  2.819497
  N     3.751111  1.641826  2.695310
  N     3.955351  5.487855  2.721918
  N     1.666925  0.541331  1.768450
  N     1.877723  4.714216  1.503325
  N     1.019490  1.499819  5.503398
  N     1.029475  5.099255  5.220643
  S     0.354148  0.687426  4.227507
  S     0.433863  4.432817  3.824582
  S     3.101050  1.070221  1.200975
  S     3.352725  5.261732  1.159958
  S     2.690682  1.746621  5.420057
  S     2.735834  5.345451  5.257031
