16  
    
  C    -1.896862 -1.037458  2.394466
  C    -1.849318  2.365781  2.640393
  C    -3.094911 -1.533935  1.769640
  C    -3.093586  1.979398  1.932764
  N    -0.914900 -0.843981  1.507041
  N    -0.891885  2.788785  1.826151
  N    -3.000939 -1.748822  0.432458
  N    -2.896847  1.820965  0.643262
  N    -3.589917 -1.140617  4.325534
  N    -3.737499  2.082757  4.395410
  S    -4.399945 -1.498364  2.944493
  S    -4.504709  1.877241  2.926522
  S    -1.427350 -1.252940  0.002869
  S    -1.389691  2.383529  0.305048
  S    -1.967256 -0.875273  4.114945
  S    -2.086712  2.405225  4.368565
