16  
    
  C    -5.344307 -2.440505  1.424992
  C    -5.357341  1.162134  1.301184
  C    -6.552716 -2.966670  0.842689
  C    -6.564356  0.668580  0.657879
  N    -4.403499 -2.220256  0.517198
  N    -4.354895  1.473498  0.486609
  N    -6.559686 -2.937373 -0.507537
  N    -6.415333  0.428405 -0.647074
  N    -7.046443 -2.734787  3.358100
  N    -7.169352  0.824004  3.180648
  S    -7.859430 -3.098587  1.944419
  S    -7.810949  0.075005  1.771693
  S    -5.084958 -2.475921 -0.947362
  S    -4.874349  0.988418 -1.030892
  S    -5.506770 -2.217814  3.130000
  S    -5.530383  1.206845  3.015512
