16  
    
  C     1.420851  0.693454  3.053871
  C     0.939723  4.219078  2.749874
  C     0.193522  0.258404  2.460196
  C    -0.069293  3.541543  1.976803
  N     2.343365  0.915785  2.155418
  N     1.996193  4.455229  1.965976
  N     0.223749  0.127530  1.148781
  N     0.104764  3.668743  0.649954
  N    -0.399190  0.661111  4.947579
  N    -0.949396  3.855382  4.391734
  S    -1.144388  0.121270  3.516031
  S    -1.466288  3.229082  2.972038
  S     1.745530  0.557864  0.690661
  S     1.672824  4.125498  0.432388
  S     1.284823  0.863146  4.758798
  S     0.656859  4.389195  4.452692
