16  
    
  C    -0.570949 -0.500325  2.412616
  C    -0.305557  3.441357  2.967689
  C    -1.758329 -0.955808  1.752305
  C    -1.529162  2.991227  2.311117
  N     0.454898 -0.363671  1.600402
  N     0.594638  3.805283  2.054526
  N    -1.753724 -1.134339  0.428340
  N    -1.398712  2.658316  1.032211
  N    -2.282307 -0.786724  4.289558
  N    -2.265277  3.309366  4.800607
  S    -3.061231 -1.018382  2.850505
  S    -2.958720  2.870051  3.289798
  S    -0.141813 -0.662061  0.068817
  S     0.138241  3.120281  0.609550
  S    -0.677124 -0.384115  4.192478
  S    -0.614562  3.737967  4.641591
