16  
    
  C    -4.595187 -2.142401  1.491271
  C    -4.400651  1.308939  1.944936
  C    -5.663734 -2.816337  0.749956
  C    -5.610263  0.812733  1.331429
  N    -3.525252 -1.802921  0.756123
  N    -3.572058  1.781380  1.072558
  N    -5.416630 -2.822209 -0.546765
  N    -5.609775  0.679003  0.020023
  N    -6.427340 -2.958910  3.193320
  N    -5.926738  0.861876  3.831664
  S    -7.023168 -3.294215  1.733155
  S    -6.779689  0.410218  2.518394
  S    -3.925838 -2.177477 -0.824725
  S    -4.124513  1.464684 -0.455533
  S    -4.879596 -2.446556  3.197463
  S    -4.413665  1.510027  3.701828
