16  
    
  C     2.819085  1.461942  3.633804
  C     2.895843  5.362762  3.526418
  C     1.610797  0.852997  3.075205
  C     1.791489  4.771738  2.840096
  N     3.777411  1.665337  2.735708
  N     3.966187  5.464462  2.751380
  N     1.665126  0.552371  1.768336
  N     1.882786  4.737450  1.511646
  N     1.014004  1.507219  5.504571
  N     1.043804  5.079730  5.227663
  S     0.341701  0.696345  4.232351
  S     0.433041  4.461711  3.819393
  S     3.090077  1.077582  1.214166
  S     3.360840  5.272794  1.187139
  S     2.684942  1.712579  5.405863
  S     2.729589  5.341328  5.259776
