16  
    
  C     2.770964  1.391817  3.660793
  C     2.945342  5.247028  3.645541
  C     1.551362  1.038157  3.043418
  C     1.687505  5.110519  2.895521
  N     3.780941  1.512701  2.777456
  N     3.999747  5.332447  2.859771
  N     1.615057  0.891495  1.722369
  N     1.847899  4.770995  1.622461
  N     0.990505  0.842594  5.551440
  N     1.137882  4.739461  5.343011
  S     0.235484  0.734448  4.088945
  S     0.361104  4.884843  3.916723
  S     3.225424  1.212566  1.312102
  S     3.452091  5.118182  1.329274
  S     2.527846  1.438193  5.447646
  S     2.712251  5.295918  5.363144
