16  
    
  C    -5.432473 -2.393417  1.325818
  C    -5.424515  1.141887  1.297034
  C    -6.639409 -2.932911  0.737449
  C    -6.578792  0.572882  0.551019
  N    -4.416175 -2.337652  0.467370
  N    -4.407216  1.484280  0.516090
  N    -6.576013 -3.037501 -0.579200
  N    -6.490510  0.500255 -0.777928
  N    -6.879560 -3.048942  3.372742
  N    -7.152477  0.546484  3.154951
  S    -7.888604 -3.327558  2.004928
  S    -7.840650  0.092542  1.658556
  S    -4.983901 -2.720921 -1.030446
  S    -4.895626  1.048755 -1.066678
  S    -5.384093 -2.334329  3.070339
  S    -5.599557  1.198922  3.038264
