16  
    
  C     2.190545  1.046727  3.450238
  C     2.076085  5.032611  3.143867
  C     0.918171  0.666957  2.901642
  C     0.888384  4.417044  2.466101
  N     3.201622  1.164399  2.610180
  N     3.144729  5.305470  2.353136
  N     0.953990  0.520743  1.577599
  N     0.988700  4.482094  1.135154
  N     0.480043  1.039533  5.414615
  N     0.391439  4.402740  4.912363
  S    -0.367930  0.457842  4.035659
  S    -0.490824  4.125482  3.559270
  S     2.572693  0.862345  1.094932
  S     2.593260  4.896979  0.821090
  S     2.184986  1.315110  5.145382
  S     2.000580  4.735079  4.903350
