16  
    
  C    -4.002347 -2.175056  1.759184
  C    -4.028630  1.389478  1.662805
  C    -5.302413 -2.432741  1.198070
  C    -5.317259  1.366946  1.033160
  N    -3.058014 -2.205465  0.858758
  N    -2.986274  1.386308  0.858207
  N    -5.380616 -2.385716 -0.142081
  N    -5.211615  1.098190 -0.267748
  N    -5.719296 -1.789308  3.658196
  N    -5.818575  1.599692  3.532598
  S    -6.606311 -2.278731  2.338823
  S    -6.710691  1.320004  2.103558
  S    -3.781083 -2.243877 -0.613299
  S    -3.538758  1.126330 -0.652320
  S    -4.091970 -1.803336  3.403861
  S    -4.178443  1.677841  3.379198
