16  
    
  C    -1.678278 -1.049715  2.621988
  C    -1.777355  2.510021  2.481775
  C    -2.862227 -1.549214  1.922927
  C    -3.050037  2.378591  1.725325
  N    -0.574694 -0.985519  1.896177
  N    -0.773458  2.590710  1.635849
  N    -2.720802 -1.534915  0.609779
  N    -2.974788  2.180847  0.410576
  N    -3.439772 -1.553434  4.366748
  N    -3.607705  2.373466  4.284236
  S    -4.282544 -1.798433  2.946860
  S    -4.360753  2.052368  2.830415
  S    -1.128867 -1.244699  0.330522
  S    -1.315903  2.388408  0.067694
  S    -1.895348 -0.975740  4.309443
  S    -1.975203  2.568647  4.181200
