16  
    
  C     2.288947  0.800981  3.520462
  C     1.882214  5.150536  3.105023
  C     0.993076  0.569294  2.933060
  C     0.829586  4.485538  2.387109
  N     3.331685  0.850016  2.683754
  N     3.087050  5.212871  2.472678
  N     1.029689  0.476948  1.582880
  N     1.111478  4.428815  1.072530
  N     0.595411  0.987359  5.555995
  N     0.039794  4.773917  4.778676
  S    -0.252681  0.615026  4.123509
  S    -0.526437  4.139175  3.413348
  S     2.623107  0.660399  1.160671
  S     2.684167  4.894482  0.891815
  S     2.260497  1.149571  5.218601
  S     1.540681  5.274146  4.832007
