16  
    
  C     2.282974  0.745147  3.513616
  C     1.860881  5.112058  3.140272
  C     1.001261  0.588073  2.887162
  C     0.804858  4.529107  2.339235
  N     3.311151  0.774054  2.669081
  N     2.937998  5.275279  2.437996
  N     1.078055  0.559312  1.558594
  N     1.124038  4.353886  1.061922
  N     0.634226  1.056837  5.536842
  N    -0.009521  4.813238  4.777222
  S    -0.271519  0.561808  4.167962
  S    -0.542449  4.111003  3.405226
  S     2.659759  0.656044  1.166833
  S     2.708702  4.860762  0.862439
  S     2.262369  1.146558  5.225667
  S     1.598065  5.292669  4.854132
