16  
    
  C     1.580857  0.716091  2.844885
  C     0.820876  4.186525  2.435191
  C     0.343268  0.318217  2.194881
  C    -0.269563  3.399462  1.896184
  N     2.578793  0.844828  1.985940
  N     1.952331  4.265902  1.677906
  N     0.364290  0.260835  0.887857
  N    -0.158443  3.102723  0.602716
  N    -0.198231  0.392972  4.832246
  N    -0.874628  3.804009  4.383751
  S    -0.892863 -0.043773  3.369988
  S    -1.615939  3.121169  3.020664
  S     1.932898  0.635264  0.419005
  S     1.350097  3.654469  0.180179
  S     1.417214  0.876677  4.584277
  S     0.714078  4.175183  4.145653
