16  
    
  C    -4.998444 -2.613946  1.955064
  C    -5.374144  1.182969  1.691894
  C    -6.213509 -2.965031  1.312886
  C    -6.643392  0.876424  1.078586
  N    -3.946420 -2.661831  1.152176
  N    -4.314520  1.068407  0.885479
  N    -6.070737 -3.335143  0.024262
  N    -6.605727  0.734414 -0.262127
  N    -6.767996 -2.764415  3.776316
  N    -7.217169  0.996248  3.552239
  S    -7.618804 -2.816566  2.337036
  S    -8.023000  0.688473  2.123066
  S    -4.493670 -3.039892 -0.332480
  S    -4.945504  0.750446 -0.639129
  S    -5.168973 -2.134822  3.643278
  S    -5.549164  1.285291  3.374282
