16  
    
  C     2.263589  1.016915  3.464234
  C     2.179745  4.770038  3.155276
  C     1.014212  0.662919  2.854808
  C     0.943095  4.441134  2.519438
  N     3.281371  1.204189  2.577623
  N     3.157320  5.086435  2.323932
  N     0.992942  0.624265  1.531360
  N     0.999550  4.399606  1.197177
  N     0.453742  0.871002  5.323372
  N     0.479529  4.309753  5.127113
  S    -0.269792  0.480213  3.966062
  S    -0.284878  4.050882  3.603384
  S     2.515866  0.989750  1.046853
  S     2.481204  4.945361  0.791773
  S     2.027279  1.381207  5.209402
  S     2.081798  4.683523  4.909304
