16  
    
  C     1.396339  0.738564  2.995854
  C     0.978368  4.111144  2.657402
  C     0.170373  0.248780  2.411265
  C    -0.162919  3.564700  1.910362
  N     2.428645  0.992179  2.148857
  N     2.060851  4.427317  1.971982
  N     0.286936  0.121933  1.086341
  N     0.052252  3.545712  0.589025
  N    -0.333136  0.548148  4.892726
  N    -0.944065  3.849967  4.423773
  S    -1.186279  0.109300  3.508158
  S    -1.518580  3.156683  2.944020
  S     1.804487  0.598495  0.608193
  S     1.623468  4.076771  0.364504
  S     1.293427  0.795458  4.744953
  S     0.638018  4.408420  4.407730
