16  
    
  C    -1.486668 -0.932851  2.226473
  C    -1.745023  2.401173  2.051314
  C    -2.774585 -1.295496  1.608629
  C    -3.025798  2.138599  1.435715
  N    -0.491789 -1.099855  1.398078
  N    -0.774762  2.610993  1.148180
  N    -2.719136 -1.582812  0.329387
  N    -2.993561  1.912346  0.105490
  N    -3.178086 -1.034911  4.121841
  N    -3.427034  2.085527  3.988670
  S    -4.055165 -1.203326  2.760795
  S    -4.341462  1.871624  2.622838
  S    -1.125657 -1.480015 -0.091778
  S    -1.416646  2.131633 -0.351305
  S    -1.538047 -0.931333  3.935201
  S    -1.831209  2.601799  3.730446
