16  
    
  C    -2.710345 -1.684290  1.954711
  C    -3.176272  1.938206  1.748893
  C    -3.999422 -1.883115  1.325237
  C    -4.234555  1.230624  1.039512
  N    -1.717191 -1.535820  1.091494
  N    -2.045453  2.234245  1.050431
  N    -3.909205 -2.127022  0.012065
  N    -3.960008  1.148547 -0.272878
  N    -4.385138 -1.671826  3.884274
  N    -5.138887  1.595427  3.514180
  S    -5.260111 -1.900054  2.473483
  S    -5.682968  1.163718  2.039401
  S    -2.289060 -1.955593 -0.363864
  S    -2.468246  1.812371 -0.527300
  S    -2.769130 -1.400323  3.689782
  S    -3.573333  2.161651  3.451666
