16  
    
  C     2.942034  1.566114  3.404253
  C     2.962435  5.067857  3.263239
  C     1.695572  1.322001  2.708685
  C     1.729094  4.799870  2.566299
  N     4.039708  1.569477  2.649940
  N     4.044257  5.177969  2.478317
  N     1.826803  1.232616  1.372399
  N     1.964207  4.418544  1.292884
  N     1.215374  0.997533  5.210777
  N     1.152447  4.960856  5.046403
  S     0.428767  0.882640  3.757472
  S     0.393577  4.477399  3.629013
  S     3.403277  1.392731  1.024423
  S     3.529048  4.775119  0.956672
  S     2.814703  1.601850  5.197269
  S     2.809724  5.363489  4.950454
