16  
    
  C    -0.874459 -0.685522  2.433920
  C    -0.480892  3.195421  2.915451
  C    -2.106141 -0.828014  1.733970
  C    -1.720497  2.864470  2.271841
  N     0.222189 -0.607729  1.659634
  N     0.578507  3.321536  2.126252
  N    -2.016195 -0.989970  0.408969
  N    -1.553737  2.674480  0.963134
  N    -2.624341 -0.656337  4.255456
  N    -2.358340  3.398887  4.731848
  S    -3.360411 -1.121070  2.862465
  S    -3.058089  2.716915  3.364358
  S    -0.330259 -0.762614  0.118672
  S     0.043210  2.953080  0.613622
  S    -0.972853 -0.426913  4.172344
  S    -0.717000  3.767742  4.562674
