16  
    
  C     2.480665  1.086066  3.322972
  C     2.968347  5.457773  3.885191
  C     1.323923  0.618035  2.626115
  C     1.782666  4.785468  3.380454
  N     3.534023  1.157089  2.516731
  N     3.938235  5.568403  2.998667
  N     1.516441  0.414593  1.327647
  N     1.838604  4.432810  2.104783
  N     0.504499  1.081273  5.022005
  N     1.148171  5.492095  5.749150
  S    -0.095852  0.476187  3.548909
  S     0.420117  4.818454  4.424547
  S     3.107330  0.767194  1.026552
  S     3.374467  4.745865  1.683225
  S     2.104439  1.378891  5.058196
  S     2.783566  5.776605  5.597832
