16  
    
  C     3.329456  1.635984  3.322126
  C     3.104731  5.189747  3.415267
  C     1.993014  1.524629  2.720673
  C     1.889678  4.712500  2.842183
  N     4.359736  1.418871  2.469871
  N     4.125399  5.146266  2.546072
  N     1.998843  1.303137  1.411305
  N     1.917950  4.555597  1.517280
  N     1.586339  1.621099  5.234476
  N     1.391099  5.027773  5.306804
  S     0.675239  1.605329  3.847455
  S     0.576920  4.549138  3.930152
  S     3.544826  1.164162  0.928855
  S     3.489702  4.671912  1.109940
  S     3.237581  1.991636  5.058852
  S     3.031822  5.240193  5.191178
