16  
    
  C     2.847101  1.537008  3.548301
  C     2.958491  5.184047  3.383424
  C     1.632338  0.903431  3.037006
  C     1.773174  4.665968  2.768460
  N     3.814162  1.701319  2.652137
  N     3.875875  5.621205  2.538155
  N     1.674763  0.575085  1.752309
  N     1.842481  4.626167  1.455282
  N     1.157235  1.351430  5.517038
  N     1.131373  5.020076  5.279650
  S     0.399703  0.630419  4.222589
  S     0.427674  4.318624  3.920963
  S     3.164221  1.016358  1.222310
  S     3.388249  5.169242  1.001952
  S     2.691419  1.918788  5.257533
  S     2.704676  5.392834  5.145255
