16  
    
  C    -0.890369 -0.515315  2.404479
  C    -0.550473  3.197130  2.860369
  C    -2.174086 -0.966929  1.801482
  C    -1.782711  2.846577  2.260806
  N     0.193764 -0.585789  1.620506
  N     0.527500  3.221668  2.044653
  N    -2.094280 -1.046049  0.472018
  N    -1.670459  2.569546  0.964576
  N    -2.768129 -0.661564  4.250591
  N    -2.392872  3.239452  4.712233
  S    -3.532591 -1.187336  2.866947
  S    -3.123604  2.735062  3.293543
  S    -0.435516 -0.925958  0.089568
  S    -0.080631  2.791535  0.565265
  S    -1.086265 -0.471386  4.142077
  S    -0.769766  3.692121  4.556563
