16  
    
  C    -3.454919 -2.161184  1.857980
  C    -3.740301  1.927700  1.931984
  C    -4.521453 -2.903839  1.233736
  C    -4.725639  1.063940  1.310635
  N    -2.360516 -2.017247  1.135979
  N    -2.803022  2.377676  1.119193
  N    -4.239746 -3.252530 -0.013568
  N    -4.349379  0.796352  0.074923
  N    -5.237815 -2.448987  3.685457
  N    -5.551536  1.369616  3.766870
  S    -5.918425 -2.947828  2.275275
  S    -6.004663  0.508512  2.348807
  S    -2.705586 -2.665402 -0.370227
  S    -2.992083  1.682283 -0.344334
  S    -3.686757 -1.786280  3.599799
  S    -4.238668  2.387819  3.555448
