16  
    
  C    -3.948735 -1.851039  1.727463
  C    -3.705505  1.763352  1.825111
  C    -5.126605 -2.466908  1.095162
  C    -4.988759  1.451020  1.166395
  N    -2.869782 -1.684201  0.942023
  N    -2.696176  2.069640  1.010495
  N    -4.998410 -2.520819 -0.200752
  N    -4.876709  1.352444 -0.145621
  N    -5.843845 -1.899796  3.430502
  N    -5.431756  1.577318  3.713162
  S    -6.526559 -2.687325  2.148336
  S    -6.183814  1.119618  2.321343
  S    -3.460979 -2.095034 -0.590130
  S    -3.353950  1.778904 -0.546611
  S    -4.178506 -1.568516  3.432686
  S    -3.791752  1.824870  3.597258
