16  
    
  C     2.588352  1.104360  3.208293
  C     2.535970  5.044979  3.576575
  C     1.401180  0.718321  2.487278
  C     1.459051  4.227390  3.107244
  N     3.707011  1.170720  2.487343
  N     3.491507  5.234860  2.669657
  N     1.571889  0.518980  1.187512
  N     1.508332  4.013157  1.802200
  N     0.738017  1.105302  4.926910
  N     0.885887  4.770868  5.544597
  S     0.071619  0.361260  3.578263
  S     0.099343  4.241954  4.166426
  S     3.163319  0.782538  0.887183
  S     2.937523  4.659166  1.229168
  S     2.336983  1.327273  4.935812
  S     2.505265  5.323213  5.278679
