16  
    
  C    -1.837869 -0.903214  2.141549
  C    -1.760141  2.261759  1.985453
  C    -3.102245 -1.276323  1.552889
  C    -3.034826  2.034115  1.266884
  N    -0.813735 -0.953779  1.272670
  N    -0.688419  2.503687  1.206475
  N    -3.092145 -1.536845  0.232801
  N    -2.788757  1.824550 -0.033220
  N    -3.479856 -1.019109  4.034663
  N    -3.632847  1.961195  3.786797
  S    -4.418773 -1.188390  2.670053
  S    -4.391179  1.934256  2.306742
  S    -1.524239 -1.331827 -0.236618
  S    -1.162505  2.095752 -0.326706
  S    -1.823701 -0.965925  3.887051
  S    -2.022978  2.392864  3.713166
