16  
    
  C     2.677333  1.076071  3.167460
  C     2.612650  4.914063  3.584149
  C     1.462672  0.664388  2.540376
  C     1.403978  4.350580  2.971333
  N     3.693713  1.149141  2.313433
  N     3.513852  5.302823  2.671482
  N     1.516771  0.529368  1.224432
  N     1.549709  3.898539  1.727077
  N     0.770506  0.888478  4.959676
  N     0.885213  4.611055  5.446222
  S     0.064265  0.365740  3.521889
  S     0.021415  4.249748  4.048050
  S     3.120060  0.780946  0.811128
  S     2.910863  4.679710  1.200954
  S     2.422033  1.311282  4.865987
  S     2.400539  5.244659  5.297463
