16  
    
  C     1.003785  0.262743  2.942678
  C     0.483143  3.512650  2.843653
  C    -0.171493 -0.196122  2.239026
  C    -0.646704  3.160695  2.034933
  N     2.049646  0.610898  2.174177
  N     1.496337  3.972846  2.108212
  N    -0.077187 -0.116822  0.929476
  N    -0.458878  2.981100  0.747585
  N    -0.804641 -0.249966  4.716895
  N    -1.365992  3.222663  4.524247
  S    -1.501888 -0.451498  3.239832
  S    -1.948990  2.747884  3.073071
  S     1.467357  0.403081  0.629236
  S     1.165547  3.601055  0.528878
  S     0.808717  0.254450  4.604895
  S     0.249062  3.720854  4.535743
