16  
    
  C    -0.202958 -0.380564  2.772516
  C     0.162279  3.485028  2.322721
  C    -1.362103 -0.660380  1.994077
  C    -1.110679  3.120906  1.619682
  N     0.848088 -0.071435  2.045446
  N     1.160116  3.739533  1.502447
  N    -1.130027 -0.949944  0.716796
  N    -0.969045  3.011649  0.301734
  N    -2.065239 -0.627976  4.477486
  N    -1.462136  2.929992  4.267040
  S    -2.762111 -0.902444  2.970651
  S    -2.378732  2.881019  2.817753
  S     0.481783 -0.516272  0.446730
  S     0.570095  3.493780 -0.057569
  S    -0.466945 -0.274432  4.476193
  S     0.129440  3.402471  4.049180
