16  
    
  C    -1.611607 -1.153273  2.339682
  C    -1.783628  2.407413  2.362084
  C    -2.894067 -1.376856  1.761474
  C    -2.944136  1.839075  1.716525
  N    -0.625424 -1.138454  1.442411
  N    -0.808133  2.648070  1.504048
  N    -2.967936 -1.544151  0.448476
  N    -2.889177  1.758208  0.388425
  N    -3.299912 -0.948529  4.290707
  N    -3.605100  2.178598  4.156352
  S    -4.155966 -1.298659  2.928286
  S    -4.409660  1.731523  2.773745
  S    -1.398246 -1.278746 -0.026669
  S    -1.319199  2.200813  0.002283
  S    -1.645186 -0.802435  4.044541
  S    -2.006481  2.589940  4.055723
