16  
    
  C    -4.586381 -2.158519  1.484304
  C    -4.399463  1.318550  1.920451
  C    -5.654747 -2.849791  0.762431
  C    -5.608302  0.797184  1.343736
  N    -3.519157 -1.806800  0.753604
  N    -3.550127  1.780885  1.054456
  N    -5.417265 -2.837047 -0.559799
  N    -5.615589  0.682238  0.018662
  N    -6.419969 -2.968915  3.198727
  N    -5.920498  0.862343  3.862032
  S    -7.022450 -3.288101  1.718176
  S    -6.787792  0.425020  2.530399
  S    -3.911941 -2.181931 -0.817975
  S    -4.118707  1.470228 -0.472364
  S    -4.863742 -2.441671  3.208642
  S    -4.418940  1.525896  3.717187
