16  
    
  C    -3.836618 -2.313720  1.611246
  C    -3.530880  1.941267  1.569740
  C    -5.171751 -2.460477  1.009278
  C    -4.691752  1.376362  0.997589
  N    -2.820539 -1.935431  0.812145
  N    -2.528840  2.156084  0.746853
  N    -5.069671 -2.412242 -0.301700
  N    -4.608835  1.188360 -0.321193
  N    -5.616149 -2.402323  3.565381
  N    -5.220574  1.561035  3.614007
  S    -6.490442 -2.733830  2.167517
  S    -5.896728  0.967256  2.207949
  S    -3.528546 -2.025884 -0.729551
  S    -3.099738  1.718875 -0.767106
  S    -3.955987 -2.479823  3.399123
  S    -3.662757  2.133265  3.336350
