16  
    
  C     1.150832  0.225052  3.071494
  C     0.468797  3.746430  3.051562
  C    -0.084512 -0.091338  2.348872
  C    -0.520911  3.165752  2.206637
  N     2.213453  0.389487  2.300866
  N     1.572435  4.160068  2.463983
  N     0.103554 -0.251843  1.036565
  N    -0.159010  2.982495  0.922358
  N    -0.745570 -0.045246  4.756241
  N    -1.405635  3.091513  4.593149
  S    -1.472146 -0.300447  3.330302
  S    -1.862521  2.522060  3.103496
  S     1.696586  0.051535  0.724800
  S     1.318865  3.843583  0.818465
  S     0.874669  0.399519  4.745628
  S     0.100186  3.815561  4.738074
