16  
    
  C     1.050725  0.213677  3.003382
  C     0.482900  3.797085  2.884644
  C    -0.159223 -0.089961  2.234268
  C    -0.488992  3.060695  2.143542
  N     2.092579  0.560064  2.217329
  N     1.613195  4.108739  2.196741
  N     0.093702 -0.126724  0.910655
  N    -0.227607  2.892377  0.859778
  N    -0.781896 -0.235945  4.738913
  N    -1.465692  3.164179  4.494138
  S    -1.559457 -0.368574  3.298095
  S    -1.995957  2.616581  3.043713
  S     1.628592  0.377417  0.590672
  S     1.216341  3.650693  0.593140
  S     0.799639  0.214110  4.752885
  S     0.116035  3.737831  4.581949
