16  
    
  C    -1.396813 -0.927674  2.277127
  C    -1.512426  2.923789  2.003464
  C    -2.508163 -1.398380  1.494775
  C    -2.597316  2.280329  1.344829
  N    -0.280875 -0.783493  1.526953
  N    -0.458614  3.160828  1.237135
  N    -2.388832 -1.345825  0.141361
  N    -2.406585  1.992410  0.059589
  N    -3.188367 -1.369503  4.007610
  N    -3.303562  2.445451  3.808429
  S    -3.887148 -1.639821  2.531005
  S    -3.877682  1.682132  2.447725
  S    -0.721124 -1.014221 -0.067842
  S    -0.921444  2.664679 -0.283781
  S    -1.614334 -0.763328  3.961460
  S    -1.916951  3.325546  3.640351
