16  
    
  C     2.040021  0.844815  2.997141
  C     2.223645  4.313130  3.053159
  C     0.776693  0.496262  2.383710
  C     1.072673  4.027442  2.271872
  N     3.098264  0.832546  2.207211
  N     3.376296  4.467225  2.360903
  N     0.906175  0.199292  1.085400
  N     1.347958  3.842680  0.972399
  N     0.156615  0.968094  4.926704
  N     0.247053  4.374597  4.691682
  S    -0.598059  0.713233  3.478933
  S    -0.397363  3.918077  3.310651
  S     2.484794  0.451003  0.724904
  S     2.944624  4.023567  0.836685
  S     1.848186  1.336189  4.649394
  S     1.823442  4.806631  4.696931
