16  
    
  C    -4.028203 -1.828058  1.674147
  C    -3.756256  1.679921  1.785085
  C    -5.201749 -2.355823  1.017741
  C    -5.005094  1.355621  1.187327
  N    -2.909435 -1.696291  0.942018
  N    -2.704537  1.807681  0.993315
  N    -4.960197 -2.630452 -0.277553
  N    -4.985845  1.328420 -0.150298
  N    -5.837378 -1.984647  3.511840
  N    -5.472728  1.556704  3.671713
  S    -6.502719 -2.400955  2.094343
  S    -6.349391  1.195227  2.308504
  S    -3.372503 -2.178480 -0.597864
  S    -3.415939  1.580929 -0.595230
  S    -4.258819 -1.483169  3.401529
  S    -3.854206  1.741727  3.536930
