16  
    
  C    -0.097922 -0.442875  2.566617
  C     0.087324  3.508416  2.399760
  C    -1.426311 -0.653996  1.999893
  C    -1.218983  3.303960  1.791314
  N     0.839017 -0.244896  1.660220
  N     1.052279  3.706495  1.475004
  N    -1.464002 -0.683533  0.680586
  N    -1.154954  3.089124  0.465562
  N    -1.771612 -0.365480  4.544527
  N    -1.682591  3.507430  4.287531
  S    -2.711690 -0.676472  3.201563
  S    -2.516374  3.043576  2.936000
  S     0.065491 -0.352546  0.233163
  S     0.432689  3.377204  0.002241
  S    -0.141280 -0.098336  4.296945
  S    -0.062808  3.875195  4.026095
