16  
    
  C     1.405625  0.751036  2.978244
  C     0.992144  4.066854  2.640587
  C     0.177672  0.255792  2.377283
  C    -0.173991  3.617655  1.901291
  N     2.438569  1.010620  2.155343
  N     2.070582  4.418923  1.969942
  N     0.294564  0.114128  1.046298
  N     0.031265  3.483886  0.592221
  N    -0.320393  0.497782  4.870403
  N    -0.933559  3.836991  4.415029
  S    -1.188622  0.109316  3.515697
  S    -1.535502  3.140560  2.944191
  S     1.823557  0.611963  0.590145
  S     1.609160  4.061811  0.342975
  S     1.296484  0.779619  4.739728
  S     0.627675  4.407817  4.377050
