16  
    
  C     0.787155  0.287276  2.888727
  C     0.616111  3.693146  2.716745
  C    -0.428208 -0.178308  2.338243
  C    -0.633810  3.396492  2.135415
  N     1.733099  0.583119  1.978240
  N     1.590389  3.856199  1.828520
  N    -0.380002 -0.503719  1.048731
  N    -0.609782  3.253737  0.810074
  N    -0.933789  0.156181  4.879840
  N    -0.951107  3.341438  4.722180
  S    -1.756233 -0.235327  3.528895
  S    -1.908011  3.176759  3.389670
  S     1.112659  0.059828  0.511754
  S     0.895466  3.738837  0.383207
  S     0.626435  0.566546  4.595475
  S     0.679547  3.525163  4.461584
