16  
    
  C    -2.658759 -1.829337  2.004081
  C    -2.894239  2.251045  1.859949
  C    -3.926262 -2.058079  1.303359
  C    -4.094796  1.775197  1.115318
  N    -1.566186 -1.904885  1.230923
  N    -1.906778  2.693692  1.090192
  N    -3.779554 -2.224761  0.003467
  N    -3.852975  1.665101 -0.174705
  N    -4.647818 -1.882643  3.683057
  N    -4.767766  1.793932  3.586864
  S    -5.362094 -2.225125  2.262774
  S    -5.452094  1.440291  2.136364
  S    -2.204424 -2.090404 -0.327376
  S    -2.357640  2.260072 -0.501030
  S    -2.949552 -1.742439  3.728352
  S    -3.197902  2.331159  3.650002
