16  
    
  C     2.737523  1.135622  3.570685
  C     2.922348  5.014828  3.647314
  C     1.571007  0.767226  2.837403
  C     1.596997  4.857642  3.036907
  N     3.748629  1.575299  2.817248
  N     3.931123  4.822993  2.793352
  N     1.722436  0.806030  1.523900
  N     1.634844  4.849666  1.703072
  N     0.789482  0.836094  5.293403
  N     1.245425  5.459878  5.486590
  S     0.115430  0.472700  3.825453
  S     0.313065  5.208804  4.133648
  S     3.293206  1.388350  1.251166
  S     3.269994  4.894349  1.333743
  S     2.411758  1.054974  5.245000
  S     2.903444  5.289213  5.320399
