16  
    
  C     1.108543  0.028494  2.942877
  C     0.856747  3.821600  2.985510
  C    -0.164751 -0.416292  2.469663
  C    -0.387271  3.263582  2.429106
  N     2.000225  0.203234  1.953716
  N     1.858048  3.825745  2.068744
  N    -0.277316 -0.571817  1.170501
  N    -0.433110  3.218674  1.079093
  N    -0.429577 -0.106378  5.094179
  N    -0.678783  3.756375  4.982402
  S    -1.347909 -0.514226  3.749854
  S    -1.606775  3.352827  3.631779
  S     1.233789 -0.188708  0.520520
  S     1.191389  3.401272  0.600056
  S     1.083673  0.297617  4.637087
  S     0.876969  4.175191  4.665047
