16  
    
  C     3.139654  1.713507  3.253551
  C     3.089860  5.146270  3.378945
  C     1.866060  1.468669  2.598416
  C     1.830265  4.794469  2.701735
  N     4.237794  1.549127  2.495086
  N     4.164491  5.015790  2.590657
  N     1.979747  1.114276  1.312616
  N     2.018707  4.603860  1.397762
  N     1.489882  1.555593  5.202155
  N     1.281954  5.010259  5.253866
  S     0.583112  1.554931  3.803033
  S     0.477820  4.567520  3.859405
  S     3.588322  1.139648  0.967092
  S     3.631654  4.815416  1.035042
  S     3.125366  1.945437  5.000486
  S     2.941642  5.231457  5.132261
