16  
    
  C    -4.732698 -2.689482  1.511781
  C    -4.666816  1.109505  1.470599
  C    -6.001284 -3.054555  0.914645
  C    -5.903011  0.953334  0.784521
  N    -3.735069 -2.577839  0.645459
  N    -3.591507  1.169044  0.671710
  N    -5.991252 -3.005683 -0.430303
  N    -5.730904  0.791379 -0.538792
  N    -6.405357 -2.727739  3.427158
  N    -6.423262  0.738334  3.345706
  S    -7.271043 -2.959457  2.017478
  S    -7.219875  0.661990  1.849775
  S    -4.430913 -2.758207 -0.859566
  S    -4.171422  0.909532 -0.856528
  S    -4.763646 -2.490598  3.215460
  S    -4.788686  0.913437  3.238805
