16  
    
  C     0.972596  0.228975  2.937516
  C     0.553038  3.505302  2.792399
  C    -0.238219 -0.124520  2.215828
  C    -0.666166  3.113563  2.062074
  N     1.942163  0.615380  2.118633
  N     1.578557  3.915729  2.038286
  N    -0.089883 -0.141482  0.878936
  N    -0.518688  3.189613  0.720037
  N    -0.754280 -0.175392  4.696318
  N    -1.286779  3.265167  4.567015
  S    -1.534855 -0.526748  3.253419
  S    -1.994993  2.785221  3.141249
  S     1.420481  0.376737  0.544529
  S     1.096136  3.565928  0.477102
  S     0.812004  0.317310  4.660690
  S     0.294724  3.672533  4.481825
