16  
    
  C    -1.347401 -0.631662  1.808043
  C    -1.177200  3.252145  2.110224
  C    -2.664788 -1.143875  1.517680
  C    -2.452828  2.727845  1.530867
  N    -0.460683 -0.576099  0.817734
  N    -0.309068  3.677901  1.209005
  N    -2.767343 -1.396065  0.207405
  N    -2.422231  2.607265  0.224567
  N    -2.773480 -0.581859  3.989214
  N    -2.808654  2.907900  4.086110
  S    -3.690518 -1.445237  2.850858
  S    -3.562677  2.259612  2.751905
  S    -1.334594 -1.060555 -0.520294
  S    -0.957583  3.268914 -0.285963
  S    -1.220005 -0.195268  3.465502
  S    -1.325086  3.625742  3.846932
