16  
    
  C    -0.144830 -0.157261  2.528080
  C    -0.018691  3.767512  2.424935
  C    -1.427330 -0.475944  2.033226
  C    -1.208372  3.114342  1.828477
  N     0.768651  0.072626  1.567598
  N     0.951522  3.781614  1.532738
  N    -1.429197 -0.783303  0.710527
  N    -1.133589  2.820525  0.522370
  N    -1.713158 -0.316306  4.605818
  N    -1.762516  3.489372  4.332553
  S    -2.634222 -0.711890  3.296512
  S    -2.507231  3.016027  2.932822
  S     0.091280 -0.387437  0.127192
  S     0.392447  3.232853  0.072929
  S    -0.107677 -0.098948  4.281680
  S    -0.115841  4.006523  4.155457
