16  
    
  C     0.777810  0.287394  2.890693
  C     0.596643  3.725389  2.721265
  C    -0.422966 -0.173719  2.343829
  C    -0.637171  3.371442  2.139341
  N     1.738433  0.585039  1.978629
  N     1.591849  3.850153  1.833493
  N    -0.397077 -0.506974  1.051388
  N    -0.612001  3.251524  0.812219
  N    -0.937835  0.166089  4.883397
  N    -0.964099  3.354388  4.721931
  S    -1.763847 -0.223032  3.535261
  S    -1.890594  3.187419  3.389393
  S     1.109546  0.055576  0.519307
  S     0.898526  3.743737  0.385759
  S     0.619700  0.557917  4.600185
  S     0.688198  3.532002  4.470994
