16  
    
  C    -1.979870 -1.096805  2.174327
  C    -1.819315  2.327002  2.043500
  C    -3.235860 -1.333461  1.556404
  C    -3.058005  1.966064  1.313608
  N    -0.975144 -0.955175  1.364284
  N    -0.706468  2.317122  1.296253
  N    -3.207190 -1.411703  0.233437
  N    -2.849358  1.844419 -0.003560
  N    -3.655698 -0.925485  4.133338
  N    -3.681965  2.104123  3.770252
  S    -4.551821 -1.204117  2.765043
  S    -4.427874  1.825953  2.308285
  S    -1.581654 -1.233232 -0.162380
  S    -1.261793  2.123958 -0.302910
  S    -1.998294 -0.843296  3.851496
  S    -2.051837  2.410410  3.747935
