16  
    
  C    -5.324914 -2.668408  1.353132
  C    -5.431009  1.087245  1.270815
  C    -6.540051 -3.163155  0.790517
  C    -6.540832  0.451039  0.593121
  N    -4.403823 -2.376139  0.454877
  N    -4.358643  1.428425  0.563811
  N    -6.556864 -3.399136 -0.509611
  N    -6.444345  0.432829 -0.742351
  N    -6.889971 -3.064613  3.355575
  N    -7.182493  0.483745  3.087987
  S    -7.709970 -3.494371  1.949701
  S    -7.937290  0.140117  1.652168
  S    -5.049346 -2.834951 -0.993424
  S    -4.947218  1.154068 -1.037987
  S    -5.355459 -2.559633  3.063337
  S    -5.723784  1.158344  2.963869
