16  
    
  C    -1.369890 -0.654039  1.841097
  C    -1.307958  3.347662  2.084149
  C    -2.620359 -1.289233  1.433886
  C    -2.483341  2.822503  1.459537
  N    -0.508735 -0.587606  0.861220
  N    -0.350999  3.689986  1.218241
  N    -2.754812 -1.456501  0.136029
  N    -2.406397  2.530519  0.151180
  N    -2.685561 -0.943751  4.095687
  N    -2.932737  2.846594  3.976461
  S    -3.654708 -1.479118  2.816008
  S    -3.681270  2.194081  2.648238
  S    -1.263541 -1.111061 -0.541214
  S    -0.936698  3.235216 -0.286756
  S    -1.191966 -0.330267  3.581253
  S    -1.506846  3.622681  3.741537
