16  
    
  C     3.163267  1.694943  3.272352
  C     3.080063  5.153942  3.372465
  C     1.881873  1.443846  2.608058
  C     1.841902  4.736556  2.702885
  N     4.210511  1.561170  2.456625
  N     4.156762  4.998583  2.594462
  N     1.970678  1.084207  1.303531
  N     2.008773  4.610413  1.364869
  N     1.479357  1.568436  5.188994
  N     1.282602  5.007022  5.239020
  S     0.554061  1.545979  3.800899
  S     0.466457  4.584502  3.854525
  S     3.591415  1.154541  0.964865
  S     3.656363  4.836537  1.036678
  S     3.107448  1.928866  5.012838
  S     2.930062  5.237336  5.128766
