16  
    
  C    -1.344950 -0.581818  1.913653
  C    -1.212516  3.351914  2.123608
  C    -2.578506 -1.140352  1.519482
  C    -2.438781  2.784597  1.611286
  N    -0.522451 -0.330039  0.904253
  N    -0.335352  3.755005  1.207689
  N    -2.628162 -1.541019  0.220291
  N    -2.427822  2.533777  0.316929
  N    -2.803043 -0.621824  4.022657
  N    -2.710598  2.920239  4.197782
  S    -3.798316 -1.218438  2.787581
  S    -3.619566  2.450750  2.851923
  S    -1.235385 -0.960451 -0.460686
  S    -0.942982  3.128662 -0.246758
  S    -1.290341 -0.129552  3.584878
  S    -1.119341  3.397335  3.880959
