16  
    
  C    -5.346454 -2.445315  1.422500
  C    -5.355408  1.166660  1.302142
  C    -6.556358 -2.955012  0.835182
  C    -6.565624  0.673503  0.657183
  N    -4.407647 -2.226614  0.518003
  N    -4.363564  1.471176  0.481188
  N    -6.561419 -2.943713 -0.510338
  N    -6.410086  0.434099 -0.644808
  N    -7.040179 -2.745145  3.355190
  N    -7.170556  0.814401  3.175873
  S    -7.852415 -3.103958  1.945457
  S    -7.808473  0.073922  1.772165
  S    -5.085428 -2.482557 -0.947707
  S    -4.874392  0.989864 -1.031049
  S    -5.507399 -2.221039  3.126335
  S    -5.535491  1.203140  3.010243
