16  
    
  C    -5.405681 -2.462180  1.351216
  C    -5.448778  1.214545  1.262686
  C    -6.690681 -2.836555  0.747749
  C    -6.564734  0.574488  0.603092
  N    -4.402126 -2.304322  0.522495
  N    -4.394107  1.468617  0.505794
  N    -6.618268 -3.061153 -0.568462
  N    -6.449672  0.526136 -0.726270
  N    -6.933888 -2.986845  3.356164
  N    -7.129339  0.618224  3.132480
  S    -7.842361 -3.257911  1.984201
  S    -7.796661  0.092030  1.706938
  S    -5.007845 -2.644405 -1.018900
  S    -4.892454  1.022027 -1.060960
  S    -5.422281 -2.286377  3.082449
  S    -5.612110  1.175136  3.017362
