16  
    
  C    -4.261305 -2.441546  1.511514
  C    -4.318352  1.482727  2.045768
  C    -5.493143 -2.909963  0.889165
  C    -5.464895  0.959867  1.374138
  N    -3.177856 -2.348717  0.685166
  N    -3.305634  1.753446  1.231643
  N    -5.320038 -3.174559 -0.388097
  N    -5.312253  0.632790  0.090896
  N    -6.035274 -2.575752  3.404267
  N    -6.124422  1.452598  3.763995
  S    -6.804471 -3.098145  2.031891
  S    -6.853319  0.858451  2.321121
  S    -3.736255 -2.794150 -0.804000
  S    -3.741692  1.258438 -0.274377
  S    -4.440020 -2.198882  3.214446
  S    -4.519759  1.966358  3.729206
