16  
    
  C    -3.688868 -2.469440  1.801353
  C    -3.440654  1.706790  1.781214
  C    -4.866586 -2.937174  1.132637
  C    -4.546214  1.031469  1.184072
  N    -2.591272 -2.379899  0.999364
  N    -2.509691  2.022806  0.855934
  N    -4.729464 -2.934370 -0.195894
  N    -4.328690  0.693759 -0.105926
  N    -5.414640 -2.760501  3.630713
  N    -5.303696  1.518349  3.644282
  S    -6.179455 -3.105505  2.153994
  S    -5.918460  0.762755  2.292227
  S    -3.170501 -2.588712 -0.517458
  S    -2.876256  1.385904 -0.590842
  S    -3.789912 -2.470791  3.567545
  S    -3.735701  2.125639  3.490346
