16  
    
  C     0.820917 -0.082438  2.784710
  C     0.438648  3.559486  2.983799
  C    -0.518642 -0.307574  2.224110
  C    -0.869753  3.392389  2.328952
  N     1.847165 -0.133373  1.890486
  N     1.447715  3.665565  2.114583
  N    -0.549120 -0.179222  0.892358
  N    -0.858135  3.654133  1.033865
  N    -0.845603 -0.271746  4.739361
  N    -1.281723  3.038858  4.818802
  S    -1.768783 -0.607415  3.399293
  S    -2.101125  3.045519  3.389982
  S     1.037626 -0.136262  0.453161
  S     0.774634  3.939608  0.613158
  S     0.820105 -0.058663  4.523324
  S     0.354791  3.382873  4.717161
