16  
    
  C     3.289033  1.683952  3.266705
  C     3.152509  5.169481  3.427645
  C     1.981481  1.574654  2.691398
  C     1.887858  4.779377  2.817107
  N     4.278958  1.441247  2.419520
  N     4.151251  5.174937  2.556124
  N     1.979832  1.288023  1.397903
  N     1.876014  4.629298  1.518931
  N     1.607773  1.574432  5.191927
  N     1.354340  5.022052  5.243790
  S     0.666754  1.589329  3.843222
  S     0.606763  4.537184  3.866972
  S     3.583399  1.129881  1.009753
  S     3.491914  4.672502  1.119922
  S     3.166400  2.001741  4.987316
  S     2.985692  5.211636  5.149772
