16  
    
  C    -4.722996 -2.461046  1.446861
  C    -4.558980  1.027926  1.559598
  C    -6.010415 -2.763781  0.859098
  C    -5.849784  0.884676  0.914828
  N    -3.710884 -2.325099  0.609954
  N    -3.491252  1.216103  0.785097
  N    -5.949094 -2.975654 -0.445164
  N    -5.726210  0.851291 -0.416337
  N    -6.448106 -2.696392  3.407540
  N    -6.326156  0.727300  3.360766
  S    -7.307289 -3.035028  2.045382
  S    -7.193077  0.578582  1.977222
  S    -4.344335 -2.642304 -0.921977
  S    -4.146508  1.019528 -0.723018
  S    -4.808198 -2.527246  3.249292
  S    -4.702854  0.937407  3.307179
