16  
    
  C     1.560144  0.701582  2.835308
  C     0.940335  3.842161  2.526825
  C     0.371988  0.208363  2.231315
  C    -0.353109  3.552631  1.900500
  N     2.584906  0.783270  1.978299
  N     1.964468  3.993217  1.693446
  N     0.500154 -0.187581  0.998150
  N    -0.161303  3.313964  0.624075
  N    -0.217855  0.707566  4.708064
  N    -0.807822  3.556604  4.406803
  S    -0.950130  0.239007  3.344870
  S    -1.634657  3.181007  2.991825
  S     2.064248  0.184765  0.528797
  S     1.349034  3.717660  0.191977
  S     1.332530  1.147244  4.552723
  S     0.687605  4.084399  4.204817
