16  
    
  C    -2.743440 -1.542911  2.104708
  C    -2.430017  2.278680  2.137581
  C    -3.961755 -2.006964  1.560269
  C    -3.728126  2.104543  1.525352
  N    -1.737742 -1.402066  1.238890
  N    -1.383722  2.376156  1.273660
  N    -3.978451 -2.029703  0.212836
  N    -3.611515  1.847614  0.218409
  N    -4.403857 -1.594400  4.023843
  N    -4.175520  1.941657  4.031861
  S    -5.217899 -2.134881  2.672742
  S    -5.011238  1.836094  2.649014
  S    -2.470754 -1.653197 -0.229046
  S    -1.992666  2.018459 -0.214840
  S    -2.783868 -1.430491  3.867898
  S    -2.600928  2.342500  3.911672
