16  
    
  C    -1.406188 -1.164882  2.189471
  C    -1.770438  2.407280  1.960759
  C    -2.736531 -1.280193  1.554749
  C    -3.020648  2.043176  1.355660
  N    -0.427938 -1.211279  1.306051
  N    -0.775437  2.366848  1.083801
  N    -2.680520 -1.499490  0.277202
  N    -3.036134  1.995765  0.004140
  N    -3.204727 -1.087061  4.107240
  N    -3.373441  2.164951  3.905231
  S    -4.072068 -1.190565  2.658874
  S    -4.252124  1.857227  2.547168
  S    -1.099142 -1.504647 -0.164473
  S    -1.436664  2.225461 -0.404451
  S    -1.534420 -0.824589  3.954943
  S    -1.798109  2.582848  3.684072
