16  
    
  C    -4.229563 -1.948759  1.877052
  C    -4.136433  1.650792  1.878373
  C    -5.422383 -2.372348  1.244402
  C    -5.340791  0.947861  1.389601
  N    -3.234828 -1.770178  1.016856
  N    -3.198460  1.698638  0.906552
  N    -5.313940 -2.853232 -0.022097
  N    -5.330383  0.563164  0.107811
  N    -6.000558 -2.175020  3.795830
  N    -5.930416  1.785720  3.819402
  S    -6.806194 -2.284036  2.336835
  S    -6.651882  0.955170  2.565522
  S    -3.744849 -2.388741 -0.428801
  S    -3.801093  1.066160 -0.462677
  S    -4.507791 -1.483501  3.501607
  S    -4.258463  1.928187  3.601997
