16  
    
  C     2.634116  1.114956  3.473340
  C     2.960369  5.188922  3.644395
  C     1.491810  0.700040  2.689597
  C     1.639619  4.986685  3.114186
  N     3.653716  1.435825  2.692009
  N     3.909421  4.823180  2.761945
  N     1.632961  0.677651  1.369822
  N     1.567972  4.837534  1.774326
  N     0.707580  0.836505  5.101929
  N     1.278860  5.544587  5.706020
  S     0.155894  0.287127  3.663083
  S     0.405882  5.354590  4.298342
  S     3.194146  1.255028  1.128697
  S     3.179409  4.717785  1.309244
  S     2.336849  1.096639  5.190123
  S     2.931761  5.411336  5.413657
