16  
    
  C    -2.840820 -2.017010  2.010133
  C    -2.880985  2.474484  1.909950
  C    -4.024260 -2.222009  1.190500
  C    -4.044160  2.076118  1.217763
  N    -1.761935 -1.723892  1.298506
  N    -1.747897  2.503963  1.218073
  N    -3.811154 -2.274904 -0.138149
  N    -3.848389  1.932473 -0.096203
  N    -4.764710 -2.051712  3.719009
  N    -4.634037  1.880833  3.694350
  S    -5.411923 -2.389841  2.284903
  S    -5.370180  1.565414  2.245450
  S    -2.184812 -1.946461 -0.306026
  S    -2.227553  2.152703 -0.345151
  S    -3.115953 -1.684513  3.707584
  S    -3.059070  2.362571  3.614703
