16  
    
  C    -0.303403 -0.341720  2.372418
  C    -0.381077  3.436669  2.813794
  C    -1.558111 -0.934261  1.796329
  C    -1.609829  3.110047  2.180418
  N     0.710752 -0.143268  1.508732
  N     0.648538  3.714482  2.023524
  N    -1.404666 -1.154780  0.488102
  N    -1.433284  2.774314  0.904654
  N    -2.002866 -0.657814  4.306069
  N    -2.122264  3.175333  4.752930
  S    -2.865721 -1.148716  2.953832
  S    -2.947993  2.912210  3.271021
  S     0.140053 -0.703321  0.039762
  S     0.144302  3.244414  0.511790
  S    -0.420067 -0.301497  4.084825
  S    -0.524369  3.775299  4.540931
