16  
    
  C     1.992470  1.099289  2.985493
  C     2.283660  4.341161  3.048154
  C     0.811158  0.552505  2.396688
  C     1.053705  4.098499  2.286230
  N     2.989415  1.276197  2.151680
  N     3.423451  4.393644  2.332122
  N     0.939654  0.189596  1.116958
  N     1.337816  3.710181  1.059510
  N     0.170608  1.109407  4.895371
  N     0.211248  4.431034  4.639795
  S    -0.550145  0.617734  3.455382
  S    -0.357082  3.828082  3.244536
  S     2.447936  0.670184  0.698940
  S     2.887634  3.978671  0.822492
  S     1.855685  1.313025  4.752704
  S     1.877108  4.646594  4.757518
