16  
    
  C    -3.700172 -2.428040  1.670769
  C    -3.427944  1.823112  1.690446
  C    -4.973282 -2.690661  1.047538
  C    -4.565101  1.133554  1.072662
  N    -2.646019 -2.175994  0.918956
  N    -2.407577  1.883280  0.856363
  N    -4.819909 -2.771696 -0.268509
  N    -4.419314  0.845711 -0.210620
  N    -5.466268 -2.849113  3.611859
  N    -5.119102  1.488672  3.491516
  S    -6.339833 -2.862567  2.160439
  S    -5.821691  0.803124  2.186381
  S    -3.236608 -2.469714 -0.638299
  S    -2.874309  1.276014 -0.549480
  S    -3.835473 -2.637161  3.442474
  S    -3.611395  2.086192  3.321096
