16  
    
  C     0.767708 -0.185016  2.803320
  C     0.420288  3.450951  2.952051
  C    -0.532289 -0.326255  2.224330
  C    -0.841517  3.519820  2.292377
  N     1.727024 -0.160387  1.925896
  N     1.433034  3.678689  2.134474
  N    -0.566513 -0.230282  0.911021
  N    -0.792822  3.528525  0.940271
  N    -0.850698 -0.310124  4.719652
  N    -1.289643  3.086272  4.842309
  S    -1.782770 -0.637742  3.358278
  S    -2.153969  2.957370  3.351690
  S     1.005124 -0.119478  0.445736
  S     0.761972  3.924319  0.626475
  S     0.787649 -0.058195  4.514966
  S     0.314891  3.394525  4.701642
