16  
    
  C     2.457172  1.088500  3.344644
  C     2.913191  5.480059  3.880870
  C     1.314633  0.627617  2.598045
  C     1.784109  4.706931  3.391855
  N     3.524301  1.172143  2.565064
  N     3.924278  5.562441  3.021193
  N     1.520951  0.392894  1.313703
  N     1.820117  4.391629  2.086821
  N     0.524116  1.044490  5.003861
  N     1.158829  5.440925  5.783737
  S    -0.069027  0.493644  3.561432
  S     0.418919  4.807576  4.407127
  S     3.126617  0.773318  1.050843
  S     3.367774  4.742953  1.681464
  S     2.099634  1.381557  5.051282
  S     2.802557  5.755379  5.570846
