16  
    
  C     2.268588  1.090017  3.455985
  C     2.248389  4.793414  3.165558
  C     1.010703  0.697723  2.856086
  C     1.023164  4.275965  2.541870
  N     3.232353  1.280807  2.586017
  N     3.280470  4.981875  2.301232
  N     1.003509  0.635276  1.529922
  N     0.952463  4.434277  1.195342
  N     0.476823  0.827275  5.410614
  N     0.525757  4.267714  5.048855
  S    -0.322615  0.477827  3.916161
  S    -0.301228  3.995732  3.720308
  S     2.595727  1.038362  1.047912
  S     2.504708  4.969913  0.795550
  S     2.043281  1.340549  5.163998
  S     2.100705  4.698038  4.915208
