16  
    
  C     3.498692  1.697860  3.589475
  C     3.013675  5.335658  3.400223
  C     2.210533  1.260187  3.068013
  C     1.926141  4.625805  2.809201
  N     4.440555  1.940344  2.683132
  N     4.102938  5.423825  2.606938
  N     2.157298  1.095853  1.741124
  N     2.029506  4.443274  1.496102
  N     1.999747  1.461971  5.622626
  N     1.318948  4.912389  5.219674
  S     1.049545  0.920092  4.390424
  S     0.607620  4.309635  3.829728
  S     3.714879  1.526554  1.218532
  S     3.559449  4.992000  1.139698
  S     3.607586  1.712821  5.320145
  S     2.844392  5.506445  5.059402
