16  
    
  C     3.224158  1.460563  3.675770
  C     3.154169  5.116779  3.501324
  C     1.946669  1.372898  2.976715
  C     1.922101  4.717447  2.814255
  N     4.241555  1.410894  2.856900
  N     4.218336  5.009916  2.727611
  N     1.990414  1.337583  1.640870
  N     2.045754  4.611624  1.485233
  N     1.619612  1.231759  5.527682
  N     1.389750  5.142555  5.245098
  S     0.658206  1.330218  4.184532
  S     0.537426  4.748160  3.887907
  S     3.626027  1.330648  1.268392
  S     3.663184  4.692865  1.175011
  S     3.202983  1.735061  5.342407
  S     3.089108  5.220439  5.200792
