16  
    
  C     3.547773  1.714763  3.605728
  C     3.133405  5.250200  3.428742
  C     2.247511  1.252462  3.087552
  C     1.938132  4.702766  2.796719
  N     4.504298  1.939616  2.727940
  N     4.142307  5.454462  2.618376
  N     2.228840  1.170773  1.765067
  N     2.076012  4.428765  1.510655
  N     2.009723  1.432451  5.622288
  N     1.279386  5.023241  5.227905
  S     1.036612  0.941222  4.373201
  S     0.628975  4.300503  3.837750
  S     3.733373  1.581339  1.193882
  S     3.511082  5.022219  1.089600
  S     3.615333  1.766442  5.301189
  S     2.881152  5.491328  5.134078
