16  
    
  C    -5.239723 -2.871229  1.401930
  C    -5.486847  1.005877  1.316949
  C    -6.454845 -3.431723  0.828789
  C    -6.600870  0.530955  0.587169
  N    -4.346411 -2.474208  0.493460
  N    -4.555952  1.434124  0.504207
  N    -6.453336 -3.542807 -0.476855
  N    -6.420238  0.477990 -0.725182
  N    -7.009042 -2.934855  3.317664
  N    -7.287344  0.601278  3.106475
  S    -7.793411 -3.596933  2.001140
  S    -7.928019  0.080058  1.625271
  S    -5.035694 -2.807639 -1.044880
  S    -4.929936  1.095164 -1.049743
  S    -5.324477 -2.646830  3.177553
  S    -5.699657  1.131355  3.056596
