16  
    
  C     0.973008  0.227337  2.932675
  C     0.555285  3.494542  2.796871
  C    -0.228111 -0.125495  2.218898
  C    -0.666951  3.123634  2.060182
  N     1.943778  0.615035  2.129093
  N     1.568423  3.925738  2.049632
  N    -0.086551 -0.139200  0.883761
  N    -0.520258  3.172568  0.715482
  N    -0.754740 -0.180255  4.696439
  N    -1.295952  3.260755  4.559523
  S    -1.532064 -0.522202  3.249701
  S    -1.990795  2.782913  3.138573
  S     1.421375  0.378533  0.550846
  S     1.102668  3.566593  0.480184
  S     0.812909  0.312578  4.656578
  S     0.292380  3.677548  4.485048
