16  
    
  C     1.918801  0.476886  3.084142
  C     1.887426  4.195445  3.309215
  C     0.583056  0.194771  2.592478
  C     0.600725  4.065038  2.629798
  N     2.843621  0.573307  2.112583
  N     2.848304  4.267300  2.417798
  N     0.491413  0.133453  1.251408
  N     0.609603  3.852055  1.329913
  N     0.230742  0.267561  5.143225
  N     0.158268  4.080433  5.140313
  S    -0.678335  0.160417  3.757320
  S    -0.680118  4.010923  3.757199
  S     2.081222  0.412599  0.630150
  S     2.223271  4.212523  0.860377
  S     1.856765  0.736236  4.793887
  S     1.788293  4.182279  5.041673
