16  
    
  C     1.108760  0.187432  2.915495
  C     0.748812  3.840515  3.156414
  C    -0.089036 -0.427473  2.508771
  C    -0.478469  3.335890  2.488049
  N     2.065591  0.317972  1.990556
  N     1.808598  3.912221  2.315904
  N    -0.075099 -0.776491  1.237217
  N    -0.442886  3.297158  1.134134
  N    -0.405087  0.059270  4.998178
  N    -0.854659  3.322826  5.072657
  S    -1.328092 -0.540898  3.698668
  S    -1.729240  3.189792  3.610872
  S     1.402173 -0.370686  0.612659
  S     1.175204  3.644342  0.734504
  S     1.162450  0.519540  4.595486
  S     0.718581  3.732821  4.923504
