16  
    
  C    -4.482097 -2.433042  1.498467
  C    -4.344234  1.441675  1.934759
  C    -5.533318 -3.001706  0.732826
  C    -5.628136  0.964991  1.413212
  N    -3.417038 -2.039673  0.801131
  N    -3.428497  1.814642  1.040654
  N    -5.317629 -2.984383 -0.548935
  N    -5.582013  0.793258  0.112489
  N    -6.267090 -2.985319  3.167838
  N    -5.915284  0.952025  3.899440
  S    -6.974166 -3.243242  1.720151
  S    -6.780070  0.571971  2.584980
  S    -3.839758 -2.271040 -0.775964
  S    -4.087388  1.364164 -0.451233
  S    -4.725848 -2.358725  3.213489
  S    -4.464936  1.638372  3.639795
