16  
    
  C     2.076894  0.583879  3.213546
  C     2.014288  4.402974  3.015807
  C     0.766223  0.254056  2.663642
  C     0.752975  3.906830  2.455638
  N     3.015691  0.713118  2.303341
  N     3.077566  4.309063  2.171820
  N     0.771949  0.011584  1.379851
  N     0.811762  3.827365  1.094187
  N     0.401131  0.741524  5.093736
  N     0.275573  4.265487  4.995684
  S    -0.491870  0.630822  3.780384
  S    -0.532375  3.957740  3.548650
  S     2.299787  0.363307  0.874012
  S     2.374945  3.929157  0.742438
  S     2.047218  0.877643  4.914343
  S     1.864399  4.783505  4.742501
