16  
    
  C     0.003605 -0.648609  2.441543
  C    -0.209407  3.217700  2.626860
  C    -1.262961 -0.968948  1.854399
  C    -1.325519  2.593593  1.948008
  N     1.003913 -0.351056  1.587703
  N     0.691537  3.722687  1.782751
  N    -1.135267 -1.109929  0.519881
  N    -1.127867  2.303110  0.661074
  N    -1.721326 -0.869911  4.378098
  N    -1.918084  2.844614  4.447684
  S    -2.568669 -1.324801  2.978862
  S    -2.637586  2.269834  3.081380
  S     0.357989 -0.641286  0.089276
  S     0.402964  2.969799  0.318803
  S    -0.108911 -0.497465  4.150528
  S    -0.380974  3.494732  4.340738
