16  
    
  C     3.053828  1.431774  3.333314
  C     3.113229  5.122490  3.358757
  C     1.787460  1.145044  2.675491
  C     1.915535  4.696364  2.661482
  N     4.050334  1.581179  2.477517
  N     4.203955  5.090551  2.588284
  N     1.907461  1.005562  1.366423
  N     2.034876  4.518576  1.370551
  N     1.281590  1.617517  5.114611
  N     1.151760  5.043629  5.042745
  S     0.457815  1.248926  3.739684
  S     0.451743  4.655598  3.587582
  S     3.507080  1.427503  0.983441
  S     3.633281  4.864529  1.001890
  S     2.931615  1.676039  5.094037
  S     2.803023  5.258502  5.131036
