16  
    
  C    -4.714028 -2.656267  1.554204
  C    -4.644545  0.740221  1.433847
  C    -6.008583 -2.997959  0.930787
  C    -5.920275  0.666530  0.721999
  N    -3.745638 -2.648624  0.646248
  N    -3.590808  0.994809  0.651255
  N    -6.051745 -3.122448 -0.398649
  N    -5.833903  0.682826 -0.600409
  N    -6.365025 -2.549525  3.477252
  N    -6.516792  0.866782  3.138674
  S    -7.241684 -3.009381  2.161671
  S    -7.317382  0.625946  1.774905
  S    -4.406426 -2.977486 -0.830132
  S    -4.223975  1.000320 -0.879604
  S    -4.728148 -2.480733  3.283909
  S    -4.883424  1.109081  3.113529
