16  
    
  C    -4.140991 -2.070504  1.813597
  C    -4.141541  1.314723  1.805905
  C    -5.476339 -2.186646  1.324953
  C    -5.377542  1.233141  1.048255
  N    -3.175212 -2.092987  0.893004
  N    -3.051268  1.260301  1.049323
  N    -5.552119 -2.416922  0.027976
  N    -5.257111  1.145442 -0.255910
  N    -5.675420 -2.151588  3.921414
  N    -6.039878  1.524472  3.482112
  S    -6.686805 -2.283485  2.598774
  S    -6.832661  1.273946  1.991651
  S    -3.977664 -2.455618 -0.541891
  S    -3.625460  1.155914 -0.555241
  S    -4.049871 -1.997114  3.524965
  S    -4.328198  1.607458  3.446534
