16  
    
  C    -0.074468 -0.632997  2.552575
  C    -0.042188  3.334095  2.621993
  C    -1.252322 -1.031787  1.849095
  C    -1.156525  2.596110  1.948119
  N     0.835957 -0.135181  1.726683
  N     0.927766  3.724661  1.778501
  N    -1.099882 -1.197517  0.524450
  N    -0.897114  2.271457  0.691636
  N    -1.842652 -0.980003  4.351464
  N    -1.930219  2.846961  4.353958
  S    -2.574488 -1.334448  2.891997
  S    -2.538212  2.314628  2.919654
  S     0.363619 -0.544530  0.194285
  S     0.457394  3.149979  0.250449
  S    -0.207258 -0.503592  4.317983
  S    -0.370752  3.503473  4.318726
