16  
    
  C     0.973666  0.226534  2.921780
  C     0.556452  3.476260  2.804865
  C    -0.207460 -0.129597  2.223316
  C    -0.666013  3.143819  2.055773
  N     1.949834  0.614059  2.148457
  N     1.548407  3.943004  2.070747
  N    -0.082152 -0.134825  0.895123
  N    -0.522033  3.137614  0.709754
  N    -0.758280 -0.190753  4.697661
  N    -1.314250  3.251822  4.545283
  S    -1.526313 -0.512398  3.243577
  S    -1.982251  2.778289  3.132488
  S     1.424085  0.382210  0.563852
  S     1.115283  3.568987  0.486365
  S     0.814349  0.303222  4.647746
  S     0.287924  3.687160  4.491935
