16  
    
  C     3.312503  1.496902  3.333557
  C     3.096018  5.024922  3.439829
  C     1.987544  1.400030  2.779073
  C     1.835817  4.674887  2.846927
  N     4.297552  1.415864  2.406321
  N     4.141331  5.090837  2.617309
  N     1.977953  1.227680  1.457826
  N     1.945562  4.328022  1.572105
  N     1.640894  1.751534  5.317036
  N     1.423382  5.002991  5.420366
  S     0.761164  1.644750  3.926960
  S     0.530473  4.628575  4.091042
  S     3.569170  1.294346  0.993318
  S     3.562514  4.739221  1.092322
  S     3.266132  1.842030  5.090449
  S     3.042225  5.331553  5.155862
