16  
    
  C    -2.691992 -1.680937  1.942960
  C    -3.130652  1.911969  1.776554
  C    -3.946200 -1.897120  1.312593
  C    -4.203648  1.317648  1.030540
  N    -1.658644 -1.707903  1.135512
  N    -2.150721  2.302835  1.005935
  N    -3.890628 -2.142217  0.023408
  N    -3.983646  1.165492 -0.267199
  N    -4.350032 -1.665418  3.847106
  N    -5.052844  1.575616  3.460497
  S    -5.213176 -1.886466  2.502600
  S    -5.689410  1.108130  2.025188
  S    -2.240628 -2.033959 -0.384303
  S    -2.441324  1.862499 -0.543165
  S    -2.704015 -1.453772  3.619485
  S    -3.547295  2.187515  3.406847
