16  
    
  C     2.647825  1.124423  3.506981
  C     2.964360  5.119946  3.662231
  C     1.510183  0.694043  2.697801
  C     1.647217  4.956537  3.118701
  N     3.669715  1.449407  2.751104
  N     3.914489  4.832546  2.755386
  N     1.635651  0.683453  1.372513
  N     1.568671  4.864168  1.776247
  N     0.721849  0.840732  5.104028
  N     1.264643  5.553647  5.695795
  S     0.155842  0.310026  3.647066
  S     0.402159  5.340608  4.273145
  S     3.180825  1.274796  1.129132
  S     3.178421  4.728295  1.289691
  S     2.360987  1.087699  5.223112
  S     2.926110  5.400314  5.407115
