16  
    
  C    -4.242626 -2.194359  2.054019
  C    -4.171609  1.348148  1.901541
  C    -5.522089 -2.531178  1.513330
  C    -5.456971  1.232399  1.253068
  N    -3.247905 -2.111190  1.175522
  N    -3.071883  1.470893  1.148321
  N    -5.577807 -2.435880  0.177887
  N    -5.328283  1.038493 -0.050895
  N    -5.824228 -2.074204  4.044508
  N    -6.020125  1.455119  3.647832
  S    -6.741140 -2.404566  2.706114
  S    -6.813167  1.173859  2.243324
  S    -3.986428 -2.159753 -0.317725
  S    -3.684574  1.194284 -0.408948
  S    -4.233593 -1.886293  3.743459
  S    -4.359520  1.542718  3.588787
