16  
    
  C    -0.624095 -0.676251  2.400059
  C    -0.446778  3.496779  2.919231
  C    -1.864161 -0.911913  1.829655
  C    -1.627356  2.825286  2.290711
  N     0.407705 -0.464523  1.586461
  N     0.646642  3.528849  2.166144
  N    -1.748734 -0.985159  0.520108
  N    -1.438715  2.642618  0.986651
  N    -2.451082 -0.765157  4.308238
  N    -2.241078  3.390004  4.679169
  S    -3.301282 -1.052850  2.870968
  S    -2.979511  2.803244  3.354890
  S    -0.242949 -0.681587  0.052939
  S     0.099552  3.088554  0.622337
  S    -0.835481 -0.390484  4.135553
  S    -0.663715  3.750324  4.649666
