16  
    
  C     1.137052  0.217693  3.005278
  C     0.595084  3.759098  3.089095
  C    -0.022530 -0.246919  2.344679
  C    -0.450048  3.157894  2.350394
  N     2.225356  0.274742  2.222308
  N     1.668026  4.198194  2.416475
  N     0.127376 -0.393977  0.991700
  N    -0.145439  3.187539  1.045715
  N    -0.715887  0.006952  4.900767
  N    -1.362994  3.017251  4.702454
  S    -1.456059 -0.326216  3.405198
  S    -1.897808  2.610966  3.200201
  S     1.729281 -0.041179  0.677142
  S     1.306289  3.861472  0.852288
  S     0.912881  0.522540  4.811159
  S     0.120717  3.767099  4.778077
