16  
    
  C     2.514050  1.214932  3.363391
  C     2.850531  5.114304  3.778145
  C     1.409737  0.653419  2.605985
  C     1.648293  4.537578  3.291491
  N     3.613019  1.431978  2.662694
  N     3.770221  5.267539  2.848211
  N     1.684334  0.280927  1.343466
  N     1.654454  4.261255  2.010015
  N     0.585773  0.856827  5.021697
  N     1.142028  4.913692  5.791203
  S     0.002899  0.505202  3.530530
  S     0.363013  4.492199  4.395527
  S     3.227748  0.778497  1.091327
  S     3.176311  4.611310  1.443375
  S     2.124764  1.376990  5.107691
  S     2.629374  5.682039  5.423194
