16  
    
  C     3.503420  1.570805  3.561081
  C     2.955721  5.340742  3.334868
  C     2.173993  1.069310  3.123835
  C     1.907699  4.585404  2.725251
  N     4.403719  1.803298  2.603119
  N     4.063249  5.465235  2.547170
  N     2.130973  0.870933  1.836098
  N     2.098981  4.356402  1.440701
  N     1.881954  1.340241  5.597733
  N     1.300442  4.692612  5.239328
  S     0.915484  0.963630  4.322923
  S     0.534757  4.288726  3.824980
  S     3.582621  1.354114  1.195861
  S     3.671413  4.909301  1.075918
  S     3.470843  1.781575  5.351230
  S     2.732037  5.523037  5.092836
