16  
    
  C     2.579306  0.956189  3.106937
  C     2.472117  4.921097  3.494937
  C     1.382813  0.533795  2.429801
  C     1.293778  4.446410  2.804746
  N     3.584516  1.201423  2.274708
  N     3.520021  5.205135  2.721312
  N     1.547163  0.372595  1.122355
  N     1.508421  4.228934  1.485208
  N     0.901468  0.641970  4.957943
  N     0.746908  4.477509  5.466765
  S     0.040728  0.459495  3.605122
  S    -0.023819  4.091580  3.971043
  S     3.147459  0.918836  0.776165
  S     3.102762  4.648537  1.217536
  S     2.444774  1.207947  4.808157
  S     2.283955  5.141640  5.219659
