16  
    
  C     2.299453  0.948640  3.422657
  C     1.959776  4.795781  2.987945
  C     1.020340  0.626206  2.861027
  C     0.841081  4.085800  2.380106
  N     3.323736  1.040049  2.548552
  N     2.980024  5.063821  2.160528
  N     1.123786  0.393630  1.537759
  N     0.979603  4.107261  1.044912
  N     0.573800  0.820366  5.457856
  N     0.310771  4.332041  4.792205
  S    -0.318799  0.670203  4.018974
  S    -0.527034  4.054009  3.461497
  S     2.657699  0.672383  1.089571
  S     2.548880  4.586132  0.659108
  S     2.259523  1.007587  5.162790
  S     1.815784  5.012068  4.718669
