16  
    
  C    -1.449185 -1.271820  2.143475
  C    -1.713674  2.251226  1.904481
  C    -2.781778 -1.377981  1.522019
  C    -3.027089  2.085868  1.340231
  N    -0.408933 -1.357046  1.346913
  N    -0.698514  2.381506  1.063246
  N    -2.714488 -1.480097  0.239161
  N    -2.976618  2.007786  0.011293
  N    -3.229378 -1.022909  4.054086
  N    -3.450426  2.331057  3.852248
  S    -4.050999 -1.178053  2.655941
  S    -4.289907  1.800204  2.504918
  S    -1.122958 -1.432266 -0.216356
  S    -1.382516  2.258714 -0.443709
  S    -1.610202 -0.780164  3.824364
  S    -1.786467  2.498759  3.628817
