16  
    
  C    -0.182785  0.113794  2.554408
  C    -0.098671  3.749813  2.426408
  C    -1.397957 -0.490591  2.044477
  C    -1.151487  2.942879  1.958686
  N     0.734157  0.267745  1.644654
  N     0.997077  3.841040  1.643863
  N    -1.343171 -0.778308  0.777363
  N    -1.010133  2.636116  0.647469
  N    -1.621581 -0.390841  4.569446
  N    -1.775693  3.473222  4.369319
  S    -2.550168 -0.760034  3.236225
  S    -2.552539  2.844820  3.085397
  S     0.170455 -0.341632  0.238651
  S     0.479539  3.188847  0.214500
  S    -0.029360  0.092883  4.277153
  S    -0.197554  4.045565  4.118607
