16  
    
  C     2.535331  1.129611  3.255454
  C     2.537844  4.661790  3.530504
  C     1.315148  0.813241  2.503567
  C     1.344610  4.320318  2.775175
  N     3.608903  1.293743  2.488534
  N     3.522051  5.030922  2.732948
  N     1.441688  0.851753  1.156576
  N     1.493232  4.302392  1.462602
  N     0.644189  0.777287  5.025707
  N     0.551115  4.416703  5.152357
  S     0.011083  0.276924  3.515855
  S    -0.033228  3.930242  3.750779
  S     3.036326  1.133102  0.857807
  S     3.061902  4.752919  1.105669
  S     2.334819  0.959364  5.001120
  S     2.109557  4.946606  5.239693
