16  
    
  C    -4.897599 -2.543983  1.945062
  C    -5.203083  1.020579  1.804082
  C    -6.135631 -2.941074  1.232269
  C    -6.432435  0.523784  1.171565
  N    -3.849723 -2.369552  1.161955
  N    -4.204308  1.235211  0.957473
  N    -5.934292 -3.221695 -0.042308
  N    -6.272573  0.313725 -0.130204
  N    -6.698554 -2.549357  3.644518
  N    -7.056072  1.047455  3.568088
  S    -7.440551 -3.275393  2.302481
  S    -7.884546  0.514128  2.243614
  S    -4.347193 -2.782523 -0.379967
  S    -4.788490  0.797538 -0.537418
  S    -5.064837 -2.339786  3.643219
  S    -5.472828  1.334685  3.479140
