16  
    
  C    -0.322064 -0.126190  2.525584
  C    -0.271313  3.213001  2.563090
  C    -1.319146 -0.806825  1.847166
  C    -1.601726  2.913427  1.974172
  N     0.762569  0.041515  1.776264
  N     0.616482  3.543283  1.616003
  N    -1.107172 -1.083284  0.550438
  N    -1.580999  2.647440  0.672541
  N    -2.113621 -0.639104  4.261230
  N    -2.040527  3.187601  4.530513
  S    -2.711483 -1.017481  2.796915
  S    -2.920262  2.892776  3.093935
  S     0.441136 -0.585606  0.254120
  S    -0.071852  3.026766  0.151259
  S    -0.542206 -0.100295  4.278397
  S    -0.411392  3.442668  4.246661
