16  
    
  C     2.189506  1.051633  3.445860
  C     2.068584  5.042066  3.138647
  C     0.911182  0.670671  2.890975
  C     0.886974  4.422840  2.464617
  N     3.201816  1.172780  2.621693
  N     3.145891  5.304626  2.358567
  N     0.960486  0.511568  1.573112
  N     1.003495  4.484046  1.135063
  N     0.478482  1.041816  5.412615
  N     0.387948  4.405964  4.922810
  S    -0.371567  0.463967  4.050529
  S    -0.499247  4.131206  3.555130
  S     2.573773  0.849829  1.099977
  S     2.598882  4.899793  0.822163
  S     2.193329  1.303499  5.139372
  S     1.982523  4.745726  4.892970
