16  
    
  C     1.010444  0.266998  2.947716
  C     0.475882  3.530092  2.845705
  C    -0.172007 -0.201546  2.242456
  C    -0.646529  3.151076  2.037184
  N     2.058645  0.609915  2.172478
  N     1.496829  3.970633  2.106207
  N    -0.075536 -0.115899  0.927143
  N    -0.445799  2.972686  0.752376
  N    -0.807467 -0.253994  4.719126
  N    -1.365831  3.222147  4.527394
  S    -1.501851 -0.446380  3.241694
  S    -1.948301  2.744379  3.066327
  S     1.473422  0.404726  0.633411
  S     1.167961  3.604664  0.533610
  S     0.806883  0.250444  4.603927
  S     0.243559  3.722024  4.539717
