16  
    
  C    -2.526972 -1.906624  1.937635
  C    -3.087757  2.175439  1.720275
  C    -3.830075 -2.108493  1.338412
  C    -4.171848  1.571664  0.987697
  N    -1.509209 -2.000969  1.066258
  N    -2.052835  2.504748  0.973203
  N    -3.793010 -2.287777  0.022625
  N    -4.012471  1.522550 -0.332537
  N    -4.325808 -1.771043  3.800975
  N    -4.979706  1.599855  3.521211
  S    -5.120692 -1.828205  2.405277
  S    -5.504919  0.997573  2.052125
  S    -2.195286 -2.168076 -0.412582
  S    -2.481356  2.041538 -0.617150
  S    -2.635701 -1.617642  3.655428
  S    -3.390268  2.262447  3.461522
