16  
    
  C    -3.198899 -2.126942  1.940117
  C    -3.760878  1.883001  1.996020
  C    -4.395978 -2.593226  1.296092
  C    -4.720825  1.056759  1.343892
  N    -2.191572 -1.963027  1.099831
  N    -2.730376  2.183814  1.226591
  N    -4.266272 -2.843418 -0.020418
  N    -4.367070  0.765367  0.108512
  N    -5.079923 -2.213405  3.698001
  N    -5.610681  1.499921  3.652106
  S    -5.742549 -2.880261  2.354817
  S    -6.069683  0.613885  2.251621
  S    -2.716278 -2.470973 -0.410709
  S    -2.955654  1.564592 -0.231132
  S    -3.579746 -1.549485  3.493050
  S    -4.086251  2.204419  3.686778
