16  
    
  C    -1.540987 -1.120005  2.712672
  C    -1.569218  2.650348  2.401288
  C    -2.581634 -1.649643  1.855180
  C    -2.744185  2.280214  1.685285
  N    -0.418684 -0.915673  2.013140
  N    -0.508732  2.790150  1.639729
  N    -2.319668 -1.616355  0.516292
  N    -2.542695  1.894170  0.444625
  N    -3.444999 -1.530818  4.292430
  N    -3.528139  2.483203  4.104844
  S    -4.009474 -1.930088  2.804741
  S    -4.210975  2.012911  2.658187
  S    -0.731195 -1.193808  0.439202
  S    -0.933843  2.218055  0.102145
  S    -1.819007 -1.175188  4.405548
  S    -1.915363  2.899391  4.072700
