16  
    
  C     2.296634  1.045449  3.491528
  C     2.038928  4.937292  3.198257
  C     1.007964  0.660750  2.942647
  C     0.890825  4.481774  2.438872
  N     3.264349  1.156633  2.565394
  N     3.077741  5.198097  2.433532
  N     1.047680  0.336845  1.671017
  N     1.091107  4.551245  1.139335
  N     0.585345  0.867446  5.477286
  N     0.147374  4.502434  4.830705
  S    -0.326500  0.687036  4.058816
  S    -0.547690  4.189237  3.330455
  S     2.530064  0.626976  1.138864
  S     2.646064  4.934254  0.853647
  S     2.241014  1.138976  5.264760
  S     1.669081  5.209266  4.930907
