16  
    
  C     3.236510  1.460476  3.668390
  C     3.147071  5.123685  3.497340
  C     1.946413  1.382766  2.972404
  C     1.924873  4.715160  2.813773
  N     4.255300  1.409553  2.855531
  N     4.208497  5.015556  2.726186
  N     1.986464  1.340526  1.639904
  N     2.045963  4.626245  1.474438
  N     1.624299  1.242215  5.517208
  N     1.395431  5.143426  5.248284
  S     0.655283  1.334331  4.183930
  S     0.534441  4.747108  3.897555
  S     3.617406  1.329008  1.259562
  S     3.662193  4.683939  1.186757
  S     3.216214  1.728707  5.339591
  S     3.090938  5.221460  5.198319
