16  
    
  C    -0.152367 -0.326790  2.646032
  C     0.116595  3.456096  2.317162
  C    -1.427395 -0.639893  1.991718
  C    -1.143466  3.329753  1.702597
  N     0.890273 -0.350986  1.779535
  N     1.089473  3.567227  1.469695
  N    -1.385080 -0.590025  0.622046
  N    -1.157722  3.211117  0.390509
  N    -1.919499 -0.401852  4.569684
  N    -1.583160  3.429481  4.219360
  S    -2.734261 -0.726912  3.156749
  S    -2.426508  3.026402  2.865175
  S     0.222225 -0.438449  0.269860
  S     0.456141  3.526942 -0.061224
  S    -0.275706 -0.201803  4.400758
  S     0.045074  3.674142  4.085451
