16  
    
  C     1.047475  0.269302  3.082649
  C     1.073720  4.096761  2.659446
  C    -0.182243  0.041584  2.358818
  C    -0.092471  3.509048  2.066843
  N     2.119442  0.286600  2.330142
  N     2.085484  4.339411  1.788044
  N    -0.046087 -0.125945  1.069784
  N     0.074942  2.938782  0.866615
  N    -0.790155 -0.054721  4.803546
  N    -0.835906  4.262372  4.402519
  S    -1.548146  0.050239  3.361990
  S    -1.430503  3.330381  3.175186
  S     1.584874  0.030528  0.756302
  S     1.621438  3.452331  0.388824
  S     0.797612  0.294605  4.758151
  S     0.774985  4.730685  4.202994
