16  
    
  C     3.644577  1.785000  3.622142
  C     3.194219  5.178712  3.444293
  C     2.402677  1.331144  3.028423
  C     1.997370  4.750879  2.824942
  N     4.606744  1.958435  2.762818
  N     4.183793  5.555374  2.704416
  N     2.443968  1.311222  1.699142
  N     2.149972  4.538278  1.507813
  N     2.033894  1.270699  5.528995
  N     1.442688  5.117844  5.308075
  S     1.114371  1.194294  4.165655
  S     0.728263  4.424892  3.992370
  S     3.928963  1.730314  1.213669
  S     3.634266  5.160214  1.172417
  S     3.467858  2.103485  5.354151
  S     3.097921  5.377334  5.118298
