16  
    
  C    -4.637106 -2.371683  1.482721
  C    -4.459235  1.294986  1.872694
  C    -5.853607 -2.758416  0.788895
  C    -5.664935  0.840942  1.210326
  N    -3.611087 -1.942954  0.757592
  N    -3.498787  1.699132  1.035851
  N    -5.685272 -2.685796 -0.521110
  N    -5.488581  0.765854 -0.131631
  N    -6.415631 -2.931700  3.262096
  N    -6.103543  0.742204  3.793751
  S    -7.149829 -3.188626  1.812997
  S    -6.844008  0.298522  2.391660
  S    -4.176201 -2.118673 -0.831963
  S    -4.042074  1.343388 -0.528215
  S    -4.912554 -2.303190  3.212125
  S    -4.515730  1.149593  3.727186
