16  
    
  C    -2.859956 -1.988038  2.008089
  C    -2.851408  2.440736  1.933840
  C    -4.012243 -2.248571  1.193763
  C    -4.042354  2.107603  1.202561
  N    -1.770408 -1.715179  1.296139
  N    -1.730297  2.497461  1.226432
  N    -3.815052 -2.279157 -0.141727
  N    -3.829562  1.943586 -0.103672
  N    -4.767169 -2.070880  3.711234
  N    -4.615921  1.884009  3.697533
  S    -5.422073 -2.400708  2.282949
  S    -5.374880  1.576639  2.265113
  S    -2.189933 -1.934540 -0.299475
  S    -2.222626  2.141363 -0.346984
  S    -3.123616 -1.683324  3.703334
  S    -3.049457  2.372032  3.626695
