16  
    
  C     2.215639  1.308613  3.420057
  C     2.269884  4.810129  3.274098
  C     1.058214  0.819268  2.743103
  C     1.073662  4.340132  2.626809
  N     3.235345  1.629629  2.587733
  N     3.311781  4.933924  2.451010
  N     1.216773  0.686719  1.439909
  N     1.119248  4.365667  1.294131
  N     0.475264  0.689872  5.310207
  N     0.650359  4.253482  5.089099
  S    -0.251582  0.489716  3.770050
  S    -0.131976  3.848573  3.743333
  S     2.780314  1.175541  1.098233
  S     2.679138  4.816272  0.939107
  S     2.117718  1.018176  5.126087
  S     2.180028  4.713529  5.006015
