16  
    
  C     2.269948  1.029757  3.459890
  C     2.200301  4.791889  3.150090
  C     1.010180  0.669254  2.851925
  C     0.968028  4.391073  2.519723
  N     3.277901  1.222658  2.583947
  N     3.197602  5.052036  2.322104
  N     0.987608  0.626224  1.538861
  N     0.982829  4.406335  1.190831
  N     0.453347  0.856643  5.346483
  N     0.491984  4.298290  5.113406
  S    -0.276136  0.481925  3.952687
  S    -0.285458  4.039237  3.633925
  S     2.533267  1.003189  1.042126
  S     2.480753  4.953763  0.793849
  S     2.026366  1.374746  5.199504
  S     2.082119  4.683935  4.909823
