16  
    
  C    -4.622441 -2.197722  1.502717
  C    -4.449981  1.380028  1.926272
  C    -5.747578 -2.629765  0.743284
  C    -5.599179  0.778356  1.342796
  N    -3.581018 -1.784225  0.790307
  N    -3.530283  1.807267  1.087522
  N    -5.476375 -2.801073 -0.575638
  N    -5.537585  0.754124  0.001007
  N    -6.443851 -2.911252  3.221805
  N    -5.993511  0.869723  3.841000
  S    -7.059372 -3.323876  1.732820
  S    -6.777630  0.330616  2.459214
  S    -3.983512 -2.152679 -0.830072
  S    -4.149141  1.410056 -0.378735
  S    -4.875358 -2.421310  3.194842
  S    -4.408731  1.407428  3.627752
