16  
    
  C    -1.486951 -1.105250  2.273971
  C    -1.859772  2.586518  2.121228
  C    -2.821836 -1.291240  1.661387
  C    -3.052228  2.019378  1.522920
  N    -0.521933 -0.963300  1.386724
  N    -0.812793  2.592483  1.267327
  N    -2.782708 -1.610265  0.362887
  N    -2.952764  1.748136  0.208846
  N    -3.232687 -0.928797  4.242097
  N    -3.478925  2.143199  4.050095
  S    -4.148361 -1.228372  2.874832
  S    -4.331377  1.855866  2.672273
  S    -1.187712 -1.422074 -0.091587
  S    -1.369820  2.162372 -0.200861
  S    -1.556938 -0.942647  3.965538
  S    -1.895208  2.573091  3.850138
