16  
    
  C     0.651962  0.207555  3.146699
  C     0.694317  3.986295  2.956581
  C    -0.649051  0.146315  2.431554
  C    -0.503651  3.382898  2.353030
  N     1.671327  0.210969  2.277637
  N     1.763857  4.034138  2.139529
  N    -0.605393  0.015340  1.094102
  N    -0.422397  3.317374  1.037175
  N    -1.090921  0.197344  4.959744
  N    -1.034611  3.775973  4.820984
  S    -1.959304  0.203064  3.536145
  S    -1.813263  3.167616  3.434110
  S     1.030239  0.084601  0.758782
  S     1.206994  3.415208  0.638539
  S     0.558793  0.523431  4.870645
  S     0.477117  4.321903  4.616435
