16  
    
  C    -0.932138 -0.607909  2.443026
  C    -0.479427  3.269210  2.918969
  C    -2.138891 -0.840099  1.733116
  C    -1.715854  2.728934  2.271908
  N     0.122036 -0.626931  1.657449
  N     0.571330  3.258723  2.118516
  N    -1.981608 -1.015652  0.432859
  N    -1.641535  2.707672  0.939158
  N    -2.690962 -0.627254  4.281456
  N    -2.325800  3.322970  4.651641
  S    -3.424815 -1.164757  2.853223
  S    -3.114697  2.724556  3.356031
  S    -0.417019 -0.848599  0.111287
  S    -0.031033  2.842776  0.578114
  S    -1.045236 -0.457569  4.159473
  S    -0.767747  3.729575  4.562144
