16  
    
  C    -1.349998 -0.654468  1.806323
  C    -1.180514  3.258557  2.118588
  C    -2.664897 -1.113674  1.523651
  C    -2.437432  2.712266  1.523587
  N    -0.457510 -0.573818  0.821876
  N    -0.321154  3.670905  1.210525
  N    -2.777543 -1.402118  0.214974
  N    -2.425511  2.624941  0.211742
  N    -2.768303 -0.597115  3.977046
  N    -2.817974  2.905924  4.090459
  S    -3.689001 -1.455978  2.855279
  S    -3.566433  2.252964  2.747059
  S    -1.330168 -1.064137 -0.521496
  S    -0.954947  3.268310 -0.290542
  S    -1.215876 -0.200756  3.459345
  S    -1.334148  3.634726  3.841993
