16  
    
  C     3.297155  1.464570  3.410616
  C     3.207801  4.899186  3.568203
  C     1.970759  1.326354  2.885390
  C     1.884009  4.684771  2.937082
  N     4.253525  1.517750  2.489575
  N     4.157127  5.115547  2.674469
  N     1.990169  1.219974  1.557390
  N     1.931396  4.423997  1.629723
  N     1.706069  1.808067  5.403230
  N     1.407095  5.010425  5.386547
  S     0.709168  1.583273  4.052751
  S     0.585830  4.697331  3.982014
  S     3.580561  1.358963  1.045284
  S     3.509215  4.688544  1.173439
  S     3.377564  1.597879  5.150819
  S     3.066893  5.397911  5.207739
