16  
    
  C     2.587559  0.983656  3.100257
  C     2.469381  4.890360  3.496067
  C     1.367516  0.514023  2.447035
  C     1.229933  4.534906  2.762982
  N     3.611211  1.242381  2.311417
  N     3.553668  5.168230  2.764365
  N     1.543827  0.399190  1.144908
  N     1.505080  4.255804  1.489439
  N     0.901549  0.629179  5.001792
  N     0.737801  4.478843  5.362780
  S    -0.012006  0.451195  3.579498
  S    -0.049661  4.030074  3.951857
  S     3.145788  0.935952  0.758292
  S     3.122879  4.656045  1.212595
  S     2.464005  1.174691  4.806284
  S     2.279279  5.128121  5.224980
