16  
    
  C    -5.832094 -2.738236  1.183849
  C    -5.671369  0.868342  1.558876
  C    -7.039813 -3.182908  0.584419
  C    -6.888074  0.515232  0.862316
  N    -4.828777 -2.578403  0.324781
  N    -4.541589  1.003070  0.814404
  N    -6.981904 -3.232814 -0.729497
  N    -6.733049  0.244400 -0.448040
  N    -7.358319 -3.316691  3.173529
  N    -7.558769  0.528261  3.381784
  S    -8.248496 -3.571635  1.793344
  S    -8.235275  0.216161  1.900800
  S    -5.408486 -2.867752 -1.154548
  S    -5.113001  0.586280 -0.731562
  S    -5.916346 -2.506279  2.904919
  S    -5.951679  1.062346  3.232603
