16  
    
  C     3.169555  1.596427  3.743185
  C     3.180489  4.970805  3.434664
  C     1.986395  1.131740  3.035186
  C     1.943060  4.757010  2.729235
  N     4.199036  1.799509  2.949213
  N     4.224879  5.187165  2.649235
  N     2.109331  0.906937  1.723102
  N     2.146177  4.475368  1.434609
  N     1.304632  1.651011  5.513984
  N     1.383447  5.065786  5.195302
  S     0.606979  1.154190  4.060185
  S     0.573697  4.526484  3.800632
  S     3.699426  1.320526  1.442218
  S     3.744309  4.814642  1.177451
  S     2.977759  1.761944  5.473221
  S     3.065985  5.255102  5.133881
