16  
    
  C    -2.715708 -1.554633  2.146125
  C    -2.491552  2.425532  2.198203
  C    -3.986049 -1.963169  1.492113
  C    -3.689819  2.024829  1.547114
  N    -1.761408 -1.295235  1.307368
  N    -1.429041  2.499810  1.408034
  N    -3.945202 -1.986220  0.171397
  N    -3.581094  1.858157  0.248483
  N    -4.425520 -1.480220  4.053197
  N    -4.210463  1.858092  4.077905
  S    -5.239201 -2.095600  2.729419
  S    -5.095508  1.748975  2.667714
  S    -2.333165 -1.602896 -0.219286
  S    -2.015130  2.152585 -0.175680
  S    -2.765771 -1.388817  3.867536
  S    -2.621076  2.365135  3.905004
