16  
    
  C    -1.498337 -1.129029  2.291027
  C    -1.870019  2.573933  2.143630
  C    -2.835987 -1.295745  1.681159
  C    -3.027349  2.020524  1.521541
  N    -0.528878 -0.957705  1.390626
  N    -0.827483  2.598769  1.305204
  N    -2.794121 -1.610861  0.358527
  N    -2.954010  1.726080  0.219272
  N    -3.242374 -0.919044  4.242517
  N    -3.494543  2.151753  4.061368
  S    -4.156032 -1.233172  2.884218
  S    -4.331364  1.848757  2.678247
  S    -1.200464 -1.412863 -0.101521
  S    -1.367412  2.166525 -0.183184
  S    -1.556149 -0.935598  3.982939
  S    -1.897976  2.573571  3.866640
