16  
    
  C    -4.809121 -2.514513  1.877497
  C    -5.142731  1.200379  1.752757
  C    -5.993900 -2.991441  1.207952
  C    -6.300721  0.595578  1.144782
  N    -3.843138 -2.182396  1.042286
  N    -4.120653  1.387195  0.936156
  N    -5.869773 -3.197664 -0.093518
  N    -6.056640  0.288053 -0.118338
  N    -6.504835 -3.036541  3.718769
  N    -6.922280  0.938894  3.593929
  S    -7.299561 -3.222715  2.305237
  S    -7.587975  0.324189  2.282366
  S    -4.376352 -2.588908 -0.520911
  S    -4.521904  0.661411 -0.469569
  S    -5.076821 -2.196380  3.614553
  S    -5.380635  1.384343  3.508051
