16  
    
  C    -4.192605 -2.321377  1.647967
  C    -4.327854  1.765372  1.916807
  C    -5.412944 -2.700645  1.034569
  C    -5.471734  1.087988  1.294187
  N    -3.191684 -2.301926  0.760215
  N    -3.204555  1.711186  1.204669
  N    -5.341850 -3.059842 -0.250443
  N    -5.216293  0.704850  0.036574
  N    -5.982718 -2.181918  3.530624
  N    -6.065096  1.480877  3.691136
  S    -6.793831 -2.727319  2.170559
  S    -6.832541  0.987045  2.253721
  S    -3.787387 -2.802235 -0.726111
  S    -3.621138  0.976247 -0.257976
  S    -4.301943 -1.882222  3.339993
  S    -4.501879  2.145668  3.600985
