16  
    
  C     0.112572  0.063532  2.746764
  C     0.042022  3.601151  2.665089
  C    -0.996733 -0.622000  2.136702
  C    -1.033090  3.007692  1.979663
  N     1.141905  0.205262  1.899153
  N     1.140727  3.774524  1.936011
  N    -0.920227 -0.682526  0.796157
  N    -0.811616  2.709483  0.701796
  N    -1.557956 -0.283089  4.596998
  N    -1.737881  3.204160  4.482923
  S    -2.268162 -0.918862  3.226202
  S    -2.332306  2.533137  3.121078
  S     0.613497 -0.185205  0.386601
  S     0.679569  3.358481  0.397555
  S    -0.036420  0.372449  4.411058
  S    -0.201488  3.932195  4.389356
