16  
    
  C     3.163505  1.639727  3.667434
  C     3.179924  5.173276  3.384541
  C     1.978317  1.079576  3.051749
  C     2.014755  4.714313  2.727020
  N     4.235334  1.773249  2.852473
  N     4.253483  5.294848  2.566186
  N     2.216647  0.771808  1.769695
  N     2.139581  4.468432  1.436896
  N     1.306304  1.569312  5.523958
  N     1.352712  4.757075  5.273296
  S     0.514972  1.120362  4.111817
  S     0.662542  4.393223  3.800634
  S     3.781231  1.262153  1.410931
  S     3.768524  4.810596  1.067502
  S     2.933527  1.927436  5.366585
  S     2.888035  5.314708  5.142655
