16  
    
  C     2.075663  0.819526  3.091698
  C     2.145519  4.397593  3.019367
  C     0.793046  0.666911  2.468605
  C     0.935910  4.014433  2.367390
  N     3.123594  0.570603  2.302278
  N     3.165882  4.706393  2.225847
  N     0.845995  0.408184  1.178624
  N     1.163999  3.576897  1.147166
  N     0.305357  1.087144  4.968212
  N     0.280085  4.464227  4.796200
  S    -0.521502  0.556744  3.573844
  S    -0.408733  3.966321  3.330512
  S     2.425986  0.216146  0.828764
  S     2.750604  4.018667  0.730422
  S     1.958619  1.124470  4.781432
  S     1.882357  4.805461  4.743717
