16  
    
  C    -1.986586 -1.069634  2.069617
  C    -2.491745  2.607682  2.056206
  C    -3.139763 -1.625379  1.436791
  C    -3.784927  2.192440  1.461427
  N    -0.997116 -0.828473  1.187579
  N    -1.508538  2.667782  1.175098
  N    -3.091543 -1.790701  0.095345
  N    -3.721266  1.863109  0.192125
  N    -3.587565 -1.668590  3.974751
  N    -4.257484  2.481771  3.969297
  S    -4.369229 -2.095308  2.556048
  S    -5.069124  1.923401  2.620013
  S    -1.526237 -1.336171 -0.321982
  S    -2.179445  2.138998 -0.316549
  S    -2.141359 -0.845343  3.817163
  S    -2.652178  2.898632  3.708582
