16  
    
  C    -2.978282 -1.648589  1.967150
  C    -2.594488  2.093549  2.011503
  C    -4.121748 -2.157156  1.251952
  C    -3.817611  1.744223  1.397192
  N    -1.917616 -1.289858  1.221248
  N    -1.555583  2.153238  1.181543
  N    -3.869996 -2.299163 -0.064390
  N    -3.748414  1.661161  0.071174
  N    -4.757554 -2.244457  3.765703
  N    -4.357776  2.154458  3.907953
  S    -5.429281 -2.609937  2.326951
  S    -5.216882  2.036306  2.444814
  S    -2.314476 -1.756865 -0.333514
  S    -2.136514  1.930798 -0.339154
  S    -3.155968 -1.647517  3.700203
  S    -2.678588  2.385550  3.716856
