16  
    
  C     1.385549  0.511845  3.005421
  C     0.942475  4.077929  2.545776
  C     0.193876  0.161689  2.240764
  C    -0.141980  3.429428  1.881102
  N     2.530045  0.362915  2.303013
  N     2.039903  4.247928  1.823513
  N     0.428838 -0.121964  0.964749
  N     0.107573  3.255473  0.603949
  N    -0.590963  0.691512  4.769235
  N    -0.961860  3.692337  4.326603
  S    -1.247885  0.335501  3.244683
  S    -1.614489  3.239740  2.806382
  S     2.064546 -0.038528  0.775054
  S     1.619195  3.820912  0.284229
  S     1.084899  0.938732  4.705654
  S     0.598964  4.161178  4.273349
