16  
    
  C    -4.244577 -2.415871  1.513633
  C    -4.285153  1.464646  2.027063
  C    -5.452332 -2.998587  0.904971
  C    -5.468523  0.972358  1.365271
  N    -3.196237 -2.359524  0.692609
  N    -3.282377  1.757962  1.217906
  N    -5.337592 -3.205032 -0.416286
  N    -5.267427  0.615620  0.082563
  N    -5.990048 -2.573156  3.426338
  N    -6.129080  1.486396  3.717810
  S    -6.826875 -3.041710  2.053298
  S    -6.868288  0.884454  2.320135
  S    -3.730532 -2.807249 -0.815925
  S    -3.717122  1.248670 -0.261735
  S    -4.416826 -2.165335  3.248725
  S    -4.534848  1.977790  3.737189
