16  
    
  C    -2.259591 -1.042410  2.012505
  C    -2.618879  2.447918  2.291358
  C    -3.245903 -1.938789  1.469419
  C    -3.851443  1.857087  1.699264
  N    -1.288717 -0.676368  1.203810
  N    -1.725555  2.910862  1.408380
  N    -3.166615 -2.015704  0.157810
  N    -3.697822  1.657499  0.377489
  N    -3.894753 -1.637362  3.964438
  N    -4.384597  2.254398  4.120010
  S    -4.479619 -2.346963  2.611339
  S    -5.128063  1.670371  2.782691
  S    -1.798816 -1.143632 -0.323920
  S    -2.286709  2.371182 -0.108255
  S    -2.378145 -1.008792  3.825810
  S    -2.847640  2.887889  3.969858
