16  
    
  C    -4.696021 -2.847052  1.522716
  C    -4.690249  0.935560  1.421782
  C    -6.022845 -3.010771  0.938098
  C    -5.940892  0.657325  0.742883
  N    -3.706759 -2.750227  0.620052
  N    -3.611438  1.025541  0.648246
  N    -5.951092 -3.146383 -0.372838
  N    -5.803757  0.748025 -0.562931
  N    -6.384946 -2.626226  3.508788
  N    -6.496747  0.791957  3.310560
  S    -7.319919 -2.972914  2.115268
  S    -7.330995  0.703481  1.791404
  S    -4.414560 -2.854985 -0.870990
  S    -4.134153  0.967692 -0.927806
  S    -4.744875 -2.468904  3.216607
  S    -4.836555  1.021233  3.120836
