16  
    
  C     2.948301  1.471795  3.433556
  C     3.021905  4.951348  3.236612
  C     1.738216  1.028780  2.754825
  C     1.782602  4.534967  2.642967
  N     3.988648  1.759705  2.660646
  N     3.928312  5.325792  2.329545
  N     1.851663  0.984797  1.405934
  N     1.842451  4.340677  1.316224
  N     1.195522  1.127669  5.307905
  N     1.152505  5.014480  5.083501
  S     0.402606  0.792493  3.925714
  S     0.463051  4.283887  3.771073
  S     3.395442  1.430579  1.060654
  S     3.355462  4.791738  0.843585
  S     2.764107  1.594145  5.100126
  S     2.771981  5.440357  4.887173
