16  
    
  C    -3.201321 -1.980090  1.877102
  C    -3.667498  1.813010  2.087075
  C    -4.352636 -2.623382  1.254372
  C    -4.726312  1.115238  1.323412
  N    -2.112437 -1.966662  1.096109
  N    -2.671347  2.145430  1.299133
  N    -4.309124 -2.743062 -0.055193
  N    -4.386315  0.728827  0.103246
  N    -5.039904 -2.143142  3.732579
  N    -5.614804  1.513336  3.671493
  S    -5.686466 -2.859311  2.388270
  S    -6.130447  0.646340  2.232594
  S    -2.707723 -2.419929 -0.443652
  S    -2.938102  1.484882 -0.215446
  S    -3.520576 -1.491387  3.543020
  S    -4.008523  2.160436  3.716111
