16  
    
  C     1.482836  0.963523  3.282638
  C     1.606775  4.468609  3.383475
  C     0.279850  0.429907  2.675460
  C     0.279527  4.083973  2.926667
  N     2.447896  1.158581  2.384514
  N     2.623100  4.327639  2.511362
  N     0.382456  0.158467  1.357238
  N     0.246456  4.055406  1.579758
  N    -0.317420  0.817381  5.172566
  N    -0.101354  4.692404  5.467122
  S    -1.092414  0.552404  3.753429
  S    -1.044107  4.200668  4.116973
  S     1.888827  0.675375  0.893678
  S     1.767599  4.089886  1.071333
  S     1.359285  1.350232  5.014864
  S     1.563359  4.864482  5.124224
