16  
    
  C    -2.009905 -1.118190  2.250771
  C    -1.820719  2.188723  2.064009
  C    -3.279293 -1.255728  1.605810
  C    -3.083410  1.913944  1.368927
  N    -1.049980 -1.070929  1.371845
  N    -0.798066  2.348034  1.209075
  N    -3.279332 -1.411667  0.296323
  N    -2.984344  1.906977  0.041388
  N    -3.812740 -0.931311  4.154857
  N    -3.784679  2.332929  3.810529
  S    -4.648015 -1.223151  2.759403
  S    -4.473677  1.742769  2.395143
  S    -1.676728 -1.175678 -0.134191
  S    -1.398757  2.121016 -0.304760
  S    -2.163973 -0.678920  3.972031
  S    -2.116209  2.418987  3.736445
