16  
    
  C     3.623738  1.711626  3.610071
  C     3.159457  5.192615  3.442748
  C     2.363301  1.295878  3.012312
  C     2.007119  4.615243  2.814368
  N     4.630977  1.941501  2.776809
  N     4.184277  5.556939  2.653397
  N     2.358901  1.277387  1.701196
  N     2.126799  4.565826  1.490861
  N     2.040626  1.268288  5.539334
  N     1.411145  5.147620  5.295262
  S     1.151696  1.166030  4.185610
  S     0.718385  4.412688  3.990156
  S     3.866400  1.725993  1.204552
  S     3.621365  5.138195  1.128715
  S     3.480822  2.063109  5.381851
  S     3.030981  5.385584  5.150392
