16  
    
  C    -2.672238 -1.598788  2.110514
  C    -2.418536  2.251443  2.122166
  C    -3.982477 -1.930911  1.561907
  C    -3.649380  2.028694  1.486857
  N    -1.755572 -1.419105  1.182356
  N    -1.397615  2.286667  1.274250
  N    -4.000542 -2.088451  0.277835
  N    -3.652343  1.857621  0.169688
  N    -4.437737 -1.688272  4.034432
  N    -4.168273  2.010214  4.047770
  S    -5.232706 -2.167186  2.661747
  S    -4.981431  1.883352  2.615515
  S    -2.500118 -1.673604 -0.259656
  S    -2.007039  1.960028 -0.228277
  S    -2.784617 -1.444459  3.846941
  S    -2.553282  2.336185  3.901885
