16  
    
  C    -0.155044 -0.453887  2.749798
  C     0.130659  3.414266  2.459958
  C    -1.286828 -0.889198  2.002617
  C    -1.030783  2.833100  1.719780
  N     0.953542 -0.192496  2.011625
  N     1.146773  3.567756  1.616413
  N    -1.083785 -0.969824  0.689712
  N    -0.995858  2.980137  0.394009
  N    -2.123749 -0.680049  4.326681
  N    -1.667961  2.871975  4.257021
  S    -2.690128 -1.313702  2.927150
  S    -2.332027  2.495164  2.770891
  S     0.443010 -0.483665  0.470829
  S     0.606872  3.355005  0.032387
  S    -0.503975 -0.269579  4.427613
  S    -0.052769  3.487942  4.181173
