16  
    
  C    -2.619984 -1.838753  1.908512
  C    -3.001825  2.063886  1.795062
  C    -3.893580 -2.125646  1.266654
  C    -4.123748  1.609739  1.045388
  N    -1.525105 -1.917616  1.160481
  N    -2.000209  2.565125  1.058462
  N    -3.742575 -2.228903 -0.052852
  N    -3.910882  1.458407 -0.265187
  N    -4.416184 -1.850960  3.802323
  N    -4.810441  1.644878  3.499297
  S    -5.259403 -1.941477  2.408289
  S    -5.489089  1.231531  2.062895
  S    -2.124076 -2.196538 -0.380083
  S    -2.505433  2.251063 -0.510591
  S    -2.751273 -1.727122  3.679517
  S    -3.304070  2.328341  3.455559
