16  
    
  C     2.220794  0.927834  3.353884
  C     2.102705  4.658656  2.984090
  C     0.982202  0.585546  2.755558
  C     0.900667  4.167086  2.328362
  N     3.201898  1.098953  2.445497
  N     3.095799  4.582147  2.119509
  N     1.000660  0.451967  1.429843
  N     0.909582  4.094216  0.979769
  N     0.377382  1.015155  5.264125
  N     0.355322  4.432345  4.755473
  S    -0.383757  0.558204  3.841013
  S    -0.380408  3.796610  3.447057
  S     2.564096  0.781954  0.954843
  S     2.550889  4.349421  0.538836
  S     2.118498  1.126617  5.091086
  S     1.967802  4.746999  4.757518
