16  
    
  C    -2.707173 -1.569701  2.094415
  C    -2.431578  2.259047  2.124137
  C    -3.974170 -1.971441  1.561905
  C    -3.684006  2.076177  1.507757
  N    -1.748439 -1.414760  1.212144
  N    -1.387902  2.333598  1.267157
  N    -3.987445 -2.058572  0.253634
  N    -3.636169  1.851525  0.195902
  N    -4.422095 -1.640468  4.026392
  N    -4.170975  1.974440  4.038251
  S    -5.221694 -2.150118  2.664515
  S    -4.994160  1.859901  2.633056
  S    -2.488535 -1.663371 -0.241372
  S    -1.997067  1.987995 -0.220920
  S    -2.784273 -1.437680  3.859171
  S    -2.579785  2.338971  3.909228
