16  
    
  C    -4.726114 -2.598735  1.633187
  C    -4.772881  1.218594  1.483024
  C    -5.998465 -2.958801  1.030950
  C    -5.971946  0.719720  0.823866
  N    -3.814348 -2.362984  0.707139
  N    -3.718432  1.351905  0.675711
  N    -5.939811 -3.246177 -0.283214
  N    -5.826817  0.585518 -0.481828
  N    -6.302258 -2.750458  3.630761
  N    -6.517776  0.801399  3.285761
  S    -7.213039 -2.988522  2.296623
  S    -7.302026  0.320872  1.897082
  S    -4.421425 -2.800971 -0.769102
  S    -4.183922  0.845496 -0.841637
  S    -4.747512 -2.245539  3.355212
  S    -4.973527  1.202317  3.162693
