16  
    
  C    -3.265817 -2.211712  1.906235
  C    -3.788779  1.959584  1.943744
  C    -4.468079 -2.654904  1.272692
  C    -4.671856  1.004153  1.323954
  N    -2.234082 -1.970393  1.093244
  N    -2.718471  2.293881  1.227915
  N    -4.244877 -2.959179  0.034424
  N    -4.376090  0.775280  0.048854
  N    -5.110348 -2.278893  3.706183
  N    -5.619600  1.455957  3.656737
  S    -5.800585 -2.898148  2.302715
  S    -6.020708  0.611055  2.328937
  S    -2.715382 -2.514776 -0.366567
  S    -2.978564  1.611023 -0.270461
  S    -3.613324 -1.602482  3.495887
  S    -4.183172  2.225900  3.627305
