16  
    
  C     3.288882  1.511739  3.588632
  C     3.052687  5.161031  3.413772
  C     2.037601  1.063045  3.021700
  C     2.028093  4.357104  2.759203
  N     4.243798  1.558066  2.671790
  N     4.050649  5.480783  2.601485
  N     2.098566  0.826111  1.706447
  N     2.140622  4.348454  1.402470
  N     1.683356  1.451024  5.563610
  N     1.153229  5.059969  5.078542
  S     0.773356  0.968249  4.279964
  S     0.595755  4.143973  3.803103
  S     3.684140  1.165254  1.264437
  S     3.710816  4.992149  1.057027
  S     3.189520  1.979541  5.251794
  S     2.779826  5.391876  5.140445
