16  
    
  C    -1.401933 -1.002978  2.434528
  C    -1.542924  2.767593  2.161876
  C    -2.526902 -1.546583  1.642045
  C    -2.493919  1.917961  1.532597
  N    -0.325245 -0.644966  1.791251
  N    -0.471076  3.031809  1.392600
  N    -2.220406 -1.652986  0.392449
  N    -2.267021  1.619947  0.237826
  N    -3.402593 -1.396802  4.057516
  N    -3.405419  2.474405  3.900436
  S    -3.986108 -1.860258  2.596875
  S    -3.929314  1.683821  2.494668
  S    -0.638526 -1.046473  0.183229
  S    -0.819495  2.375403 -0.079820
  S    -1.822962 -1.035344  4.147646
  S    -1.818102  3.016205  3.905771
