16  
    
  C    -4.251534 -2.463346  1.530699
  C    -4.261144  1.546796  2.038705
  C    -5.408306 -3.048178  0.917994
  C    -5.412392  0.930904  1.332680
  N    -3.225611 -2.345844  0.702303
  N    -3.226763  1.753182  1.219963
  N    -5.332038 -3.248805 -0.410914
  N    -5.168166  0.653809  0.069648
  N    -5.965757 -2.573648  3.456370
  N    -6.188100  1.537659  3.704895
  S    -6.828274 -2.951026  2.067281
  S    -6.874477  0.936492  2.349412
  S    -3.748479 -2.823217 -0.811809
  S    -3.691642  1.202493 -0.274031
  S    -4.363351 -2.101640  3.286203
  S    -4.577097  1.967249  3.695550
