16  
    
  C    -1.347302 -0.666872  1.857244
  C    -1.316108  3.355775  2.078512
  C    -2.621018 -1.278586  1.444880
  C    -2.488695  2.821652  1.444489
  N    -0.507400 -0.577668  0.864650
  N    -0.364412  3.692982  1.217737
  N    -2.751525 -1.476842  0.138784
  N    -2.399914  2.521794  0.152430
  N    -2.689813 -0.965902  4.094382
  N    -2.943216  2.841949  3.974433
  S    -3.659091 -1.478457  2.813923
  S    -3.687191  2.194966  2.638802
  S    -1.255473 -1.108878 -0.543979
  S    -0.936688  3.228654 -0.286291
  S    -1.195955 -0.341959  3.583736
  S    -1.512579  3.616830  3.742169
