16  
    
  C    -2.719833 -1.615491  1.942637
  C    -3.156675  1.928728  1.775036
  C    -3.992902 -1.938827  1.334367
  C    -4.254549  1.278148  1.037476
  N    -1.699042 -1.488513  1.100820
  N    -2.052494  2.206878  1.086822
  N    -3.907721 -2.109022  0.029873
  N    -3.963651  1.132750 -0.268648
  N    -4.418898 -1.676225  3.895072
  N    -5.160460  1.611980  3.527007
  S    -5.301068 -1.904430  2.473798
  S    -5.691449  1.165149  2.019400
  S    -2.325329 -1.915790 -0.378881
  S    -2.482767  1.781914 -0.514338
  S    -2.800084 -1.379215  3.720998
  S    -3.553721  2.159026  3.481432
