16  
    
  C     1.127915 -0.025481  2.903507
  C     0.857450  3.829923  2.879017
  C    -0.188677 -0.363886  2.479388
  C    -0.393086  3.343998  2.374868
  N     2.012078  0.197183  1.941979
  N     1.800002  3.819846  1.991654
  N    -0.293228 -0.515056  1.152713
  N    -0.375312  3.152051  1.056645
  N    -0.462438 -0.116638  5.005499
  N    -0.716387  3.863698  4.933764
  S    -1.408887 -0.518832  3.751739
  S    -1.564167  3.364605  3.635427
  S     1.207887 -0.140451  0.538506
  S     1.217783  3.365232  0.584620
  S     1.092337  0.264903  4.667512
  S     0.922306  4.271980  4.628519
