16  
    
  C    -1.612062 -1.141885  2.344109
  C    -1.783869  2.403616  2.351478
  C    -2.889500 -1.387706  1.761648
  C    -2.942689  1.847034  1.708578
  N    -0.627160 -1.139692  1.437257
  N    -0.813179  2.652588  1.497799
  N    -2.963522 -1.545230  0.439955
  N    -2.888877  1.756786  0.383964
  N    -3.294106 -0.943745  4.286167
  N    -3.600514  2.180453  4.154214
  S    -4.152967 -1.295533  2.925974
  S    -4.410028  1.734534  2.769858
  S    -1.392965 -1.280160 -0.029142
  S    -1.321227  2.198495 -0.001160
  S    -1.643461 -0.807727  4.047822
  S    -2.001862  2.590046  4.051255
