16  
    
  C    -4.214633 -1.955287  1.875334
  C    -4.155306  1.644911  1.861282
  C    -5.423589 -2.396743  1.239929
  C    -5.341049  0.921427  1.433823
  N    -3.245326 -1.802589  1.004431
  N    -3.178136  1.711341  0.924503
  N    -5.317944 -2.847065 -0.051088
  N    -5.340761  0.554375  0.134734
  N    -5.989785 -2.153681  3.788411
  N    -5.927115  1.789156  3.784278
  S    -6.792920 -2.289762  2.324079
  S    -6.650958  0.954493  2.550604
  S    -3.741254 -2.407758 -0.459275
  S    -3.803643  1.069064 -0.452365
  S    -4.520640 -1.480291  3.496620
  S    -4.269816  1.943328  3.578784
