16  
    
  C    -5.400978 -2.455199  1.306299
  C    -5.433589  1.028545  1.278343
  C    -6.623904 -3.004800  0.767435
  C    -6.597410  0.579947  0.592567
  N    -4.409203 -2.315306  0.434430
  N    -4.474049  1.448558  0.469141
  N    -6.542526 -3.089891 -0.572010
  N    -6.413935  0.487547 -0.731361
  N    -6.864619 -3.102000  3.341793
  N    -7.181700  0.468473  3.101360
  S    -7.866985 -3.401192  2.020998
  S    -7.897000  0.107354  1.631561
  S    -4.986166 -2.804233 -1.022453
  S    -4.900459  1.098735 -1.062576
  S    -5.359611 -2.408060  3.045799
  S    -5.607199  1.220629  3.037298
