16  
    
  C     2.497148  1.103380  3.305753
  C     2.978835  5.331042  3.791863
  C     1.370076  0.599614  2.578474
  C     1.673109  5.115297  3.240687
  N     3.527090  1.303443  2.527294
  N     3.973234  5.183308  2.928306
  N     1.529412  0.390230  1.275693
  N     1.632715  4.725253  1.965533
  N     0.722927  0.682566  5.081079
  N     1.310163  5.505825  5.758475
  S     0.043359  0.264408  3.593893
  S     0.418439  5.426580  4.383050
  S     3.091657  0.876297  1.001336
  S     3.204410  4.639679  1.494041
  S     2.232114  1.324781  5.020187
  S     2.945068  5.701876  5.513847
