16  
    
  C     2.081072  0.625649  3.180922
  C     2.041442  4.385104  3.080431
  C     0.761516  0.333088  2.594089
  C     0.776191  4.082298  2.374606
  N     3.058186  0.673815  2.300794
  N     3.047068  4.441993  2.222677
  N     0.820936  0.067071  1.304427
  N     0.929156  3.600279  1.121865
  N     0.396244  0.911422  5.171176
  N     0.320180  4.381266  4.880387
  S    -0.548125  0.664760  3.720206
  S    -0.524935  3.926643  3.532722
  S     2.393645  0.330194  0.795191
  S     2.563686  3.995288  0.672043
  S     2.050689  0.936104  4.902169
  S     1.915873  4.806249  4.709669
