16  
    
  C    -1.497930 -1.061273  2.240102
  C    -1.835673  2.579553  2.081970
  C    -2.804093 -1.298983  1.645412
  C    -3.080980  2.027167  1.515563
  N    -0.508476 -0.983011  1.376761
  N    -0.796973  2.593506  1.226388
  N    -2.765469 -1.602226  0.374640
  N    -2.947803  1.782019  0.202552
  N    -3.215393 -0.944382  4.233052
  N    -3.460698  2.131061  4.037645
  S    -4.132536 -1.221720  2.858495
  S    -4.333943  1.862762  2.664326
  S    -1.171376 -1.432460 -0.078139
  S    -1.375545  2.154835 -0.225450
  S    -1.559331 -0.949928  3.949137
  S    -1.890112  2.574798  3.829400
