16  
    
  C     1.010774  0.037649  2.932060
  C     1.015755  4.077636  2.700841
  C    -0.287296 -0.132700  2.399103
  C    -0.204682  3.394070  2.291367
  N     1.995445  0.199138  2.071769
  N     1.909631  4.055563  1.750151
  N    -0.311365 -0.220927  1.041257
  N    -0.198446  2.953760  1.048609
  N    -0.617351 -0.125445  4.944030
  N    -0.716959  4.303943  4.635090
  S    -1.500668 -0.388386  3.638189
  S    -1.459798  3.406650  3.474747
  S     1.259161  0.011222  0.608460
  S     1.295292  3.237865  0.495060
  S     0.975335  0.145919  4.681864
  S     0.906343  4.631871  4.341377
