16  
    
  C     3.756748  2.078190  3.668609
  C     3.469447  5.372386  3.575046
  C     2.586382  1.538506  2.981624
  C     2.251237  4.935086  2.941155
  N     4.825561  2.349933  2.926871
  N     4.568938  5.464820  2.808853
  N     2.868787  1.318853  1.706369
  N     2.374833  4.890497  1.636456
  N     1.792239  1.961699  5.326786
  N     1.801092  4.940854  5.405138
  S     1.110959  1.509509  3.914639
  S     0.932196  4.728205  4.009368
  S     4.354123  1.837114  1.310020
  S     3.910560  5.327344  1.258053
  S     3.408049  2.232794  5.363627
  S     3.442912  5.410021  5.295801
