16  
    
  C    -3.142661 -1.885970  1.887549
  C    -3.600370  1.713388  2.080748
  C    -4.366195 -2.314188  1.253865
  C    -4.649184  1.048856  1.405136
  N    -2.161288 -1.753730  1.021101
  N    -2.512826  1.845977  1.305845
  N    -4.238279 -2.692655 -0.014870
  N    -4.412526  0.806911  0.113189
  N    -4.857077 -2.041796  3.767468
  N    -5.515956  1.465907  3.796269
  S    -5.563625 -2.743008  2.451982
  S    -6.126256  0.936659  2.383603
  S    -2.690940 -2.283018 -0.461507
  S    -2.826342  1.274215 -0.173448
  S    -3.307463 -1.434489  3.541481
  S    -3.997658  1.943712  3.714251
