16  
    
  C    -0.321378 -0.335405  2.382678
  C    -0.335925  3.485243  2.808182
  C    -1.434239 -0.934360  1.741356
  C    -1.555838  2.975852  2.162376
  N     0.710708 -0.251794  1.558724
  N     0.687580  3.614016  1.962183
  N    -1.333660 -1.129821  0.439454
  N    -1.504584  3.001720  0.809070
  N    -1.966129 -0.620609  4.295257
  N    -2.106236  3.201717  4.672331
  S    -2.657520 -1.198816  2.917692
  S    -2.931885  2.901981  3.282340
  S     0.196814 -0.680273  0.048206
  S     0.079980  3.225221  0.432128
  S    -0.346530 -0.199624  4.126616
  S    -0.531015  3.758894  4.481189
