16  
    
  C     0.802980  0.356385  3.056916
  C     0.515548  3.948470  2.934137
  C    -0.432676  0.118552  2.414570
  C    -0.651726  3.367390  2.405471
  N     1.831891  0.536676  2.228927
  N     1.558384  3.947759  2.104859
  N    -0.342493 -0.187058  1.140004
  N    -0.601170  2.970054  1.164398
  N    -0.988196  0.257827  4.879267
  N    -1.152317  3.880008  4.872268
  S    -1.818194  0.176527  3.446583
  S    -1.961364  3.318762  3.570374
  S     1.195233  0.133024  0.742504
  S     0.933823  3.334987  0.653774
  S     0.646369  0.614308  4.727021
  S     0.479210  4.199053  4.673626
