16  
    
  C     1.492784  0.843794  3.427454
  C     1.230595  4.694247  3.241468
  C     0.207987  0.427820  2.911755
  C    -0.030932  4.125130  2.776697
  N     2.533461  0.823128  2.552901
  N     2.162534  4.753134  2.303204
  N     0.249837  0.103380  1.611748
  N    -0.078150  3.983061  1.474546
  N    -0.218246  0.941531  5.370248
  N    -0.157228  4.220899  5.363293
  S    -1.122774  0.468772  4.021789
  S    -1.183294  3.996651  3.980547
  S     1.812269  0.365138  1.094312
  S     1.463970  4.357848  0.844065
  S     1.348749  1.246339  5.116068
  S     1.415554  4.657268  4.961423
