16  
    
  C    -0.912602 -0.500950  2.476107
  C    -1.067651  3.019505  2.479156
  C    -2.060790 -1.141191  1.784698
  C    -2.314343  2.831191  1.744572
  N     0.165341 -0.307206  1.681320
  N    -0.048168  3.106062  1.664758
  N    -1.905093 -1.203664  0.448236
  N    -2.201910  2.516516  0.450669
  N    -2.682121 -1.174485  4.291439
  N    -2.893537  3.199983  4.255364
  S    -3.422733 -1.529898  2.810336
  S    -3.701590  2.991496  2.839459
  S    -0.333504 -0.712408  0.115338
  S    -0.545264  2.676343  0.141410
  S    -1.110934 -0.598234  4.132961
  S    -1.248340  3.352013  4.155581
