16  
    
  C    -2.729585 -1.466026  2.009036
  C    -3.165439  1.882190  1.881286
  C    -3.966849 -1.969503  1.423058
  C    -4.285388  1.453371  1.090635
  N    -1.735394 -1.415209  1.123239
  N    -2.111848  2.139509  1.093815
  N    -3.935020 -2.120756  0.101518
  N    -4.044275  1.149586 -0.175043
  N    -4.542384 -1.696271  3.882217
  N    -5.116905  1.673166  3.459881
  S    -5.370448 -1.916548  2.504309
  S    -5.723345  1.142268  1.979326
  S    -2.384648 -1.787903 -0.421961
  S    -2.473342  1.702091 -0.453354
  S    -2.890528 -1.321540  3.732915
  S    -3.506088  2.135298  3.552897
