16  
    
  C     2.764343  1.367836  3.689526
  C     2.990217  5.270369  3.649189
  C     1.531052  1.067170  2.986798
  C     1.717505  4.920733  2.975165
  N     3.855628  1.544288  2.949063
  N     4.030498  5.245356  2.801145
  N     1.642855  0.995675  1.681102
  N     1.789315  4.935413  1.646456
  N     0.975306  0.715842  5.424101
  N     1.098717  4.968125  5.453124
  S     0.170929  0.626158  3.956582
  S     0.295738  5.013850  3.973975
  S     3.235796  1.228195  1.311286
  S     3.417851  4.937477  1.274752
  S     2.540898  1.308601  5.401314
  S     2.767973  5.238752  5.380232
