16  
    
  C    -2.656798 -1.634725  2.134861
  C    -2.392054  2.233048  2.144576
  C    -3.973901 -1.883024  1.581182
  C    -3.662442  1.922149  1.470179
  N    -1.752232 -1.411854  1.143667
  N    -1.389223  2.190254  1.282693
  N    -4.024021 -2.126187  0.255975
  N    -3.642881  1.861800  0.131079
  N    -4.436437 -1.782213  4.063441
  N    -4.160997  2.087234  4.048596
  S    -5.268435 -2.202544  2.668295
  S    -4.965766  1.927955  2.585274
  S    -2.515575 -1.697190 -0.303526
  S    -2.033237  1.915534 -0.246852
  S    -2.789528 -1.459017  3.827191
  S    -2.495629  2.334304  3.876874
