16  
    
  C     2.398633  1.058173  3.393442
  C     2.339189  4.868542  3.385608
  C     1.233705  0.717313  2.638011
  C     1.251700  4.197022  2.673570
  N     3.383440  1.421989  2.581871
  N     3.352323  5.156006  2.551008
  N     1.341377  0.811576  1.317244
  N     1.329162  4.230276  1.331551
  N     0.568757  0.528681  5.143113
  N     0.626180  4.243085  5.155353
  S    -0.157786  0.440982  3.613688
  S    -0.132702  3.921702  3.722944
  S     2.873726  1.377124  1.054767
  S     2.903070  4.700641  1.035584
  S     2.189949  1.036485  5.129388
  S     2.185917  4.730025  5.126693
