16  
    
  C    -4.169675 -2.019868  1.814483
  C    -4.199669  1.528119  1.865597
  C    -5.436363 -2.427650  1.134977
  C    -5.383224  0.944675  1.339867
  N    -3.165151 -2.074795  0.919933
  N    -3.224294  1.682970  0.993896
  N    -5.373235 -2.777467 -0.133654
  N    -5.284371  0.524059  0.094605
  N    -6.015725 -2.008303  3.632446
  N    -5.987936  1.699063  3.751329
  S    -6.839052 -2.467400  2.218548
  S    -6.724263  0.929387  2.444603
  S    -3.778270 -2.554535 -0.561077
  S    -3.755658  1.049620 -0.390329
  S    -4.379248 -1.509263  3.468193
  S    -4.326749  2.146835  3.543495
