16  
    
  C    -2.441959 -1.133876  2.156499
  C    -2.732329  2.655763  2.342143
  C    -3.521386 -1.802192  1.454049
  C    -3.915037  2.011563  1.723212
  N    -1.430424 -0.821523  1.411747
  N    -1.773515  3.028024  1.494684
  N    -3.388321 -1.873063  0.138041
  N    -3.696994  1.797340  0.435114
  N    -4.108921 -1.656761  3.989770
  N    -4.380597  2.115242  4.235054
  S    -4.820383 -2.199909  2.605668
  S    -5.041998  1.355099  2.912227
  S    -1.874814 -1.223227 -0.142280
  S    -2.238958  2.441078 -0.011066
  S    -2.609835 -0.928101  3.859474
  S    -2.877714  2.776140  4.055531
