16  
    
  C    -4.256343 -2.198630  2.034038
  C    -4.153521  1.341989  1.927594
  C    -5.533369 -2.514805  1.520091
  C    -5.455564  1.229666  1.245779
  N    -3.244582 -2.107413  1.194391
  N    -3.074817  1.468358  1.149488
  N    -5.564399 -2.430387  0.177637
  N    -5.316443  1.034317 -0.059646
  N    -5.837840 -2.052431  4.041575
  N    -6.029907  1.445711  3.679911
  S    -6.749062 -2.419507  2.690187
  S    -6.800701  1.164849  2.264484
  S    -3.985893 -2.155307 -0.308697
  S    -3.695314  1.194585 -0.419613
  S    -4.232391 -1.869524  3.755959
  S    -4.358183  1.555085  3.594731
