16  
    
  C     1.802739  0.469826  3.130977
  C     2.063447  4.274618  3.334625
  C     0.558203  0.166079  2.396622
  C     0.717828  4.012811  2.716845
  N     2.827047  0.694039  2.337887
  N     3.007972  4.842602  2.523832
  N     0.692148  0.254670  1.078191
  N     0.862898  4.059757  1.380608
  N     0.000738  0.076910  4.972438
  N     0.251660  3.993102  5.175013
  S    -0.792248 -0.216148  3.434627
  S    -0.591899  3.686901  3.827777
  S     2.234556  0.635566  0.788971
  S     2.371519  4.573852  1.011275
  S     1.638942  0.584094  4.877247
  S     1.888840  4.380034  5.093763
