16  
    
  C     3.318986  1.483743  3.334947
  C     3.103775  5.041496  3.441126
  C     1.993470  1.386916  2.776899
  C     1.842172  4.616865  2.861557
  N     4.309718  1.426986  2.433347
  N     4.141286  5.078580  2.614678
  N     1.973346  1.215997  1.450422
  N     1.947681  4.340228  1.568985
  N     1.659235  1.766107  5.318639
  N     1.437596  5.002529  5.426400
  S     0.760132  1.647723  3.946638
  S     0.535948  4.643409  4.095967
  S     3.562363  1.308255  1.006834
  S     3.561207  4.741686  1.111961
  S     3.267871  1.815709  5.082435
  S     3.032653  5.336707  5.147691
