16  
    
  C     3.017535  1.447560  3.319756
  C     3.011199  5.086908  3.278230
  C     1.730623  1.192424  2.669450
  C     1.819577  4.760022  2.568399
  N     4.114852  1.621466  2.578722
  N     4.111021  5.207461  2.537380
  N     1.889751  1.207272  1.359005
  N     2.021784  4.560132  1.286009
  N     1.183921  1.413892  5.239396
  N     1.105992  5.032445  5.093498
  S     0.388657  1.054021  3.803622
  S     0.456742  4.609035  3.639274
  S     3.497644  1.413925  1.015449
  S     3.668808  4.774400  0.999374
  S     2.863575  1.597335  5.042943
  S     2.762075  5.265061  5.018388
