16  
    
  C    -3.760586 -2.429447  1.610238
  C    -3.370638  1.711373  1.558684
  C    -5.040336 -2.488136  0.994241
  C    -4.598395  1.121438  0.986695
  N    -2.752423 -2.303564  0.762060
  N    -2.365950  1.834956  0.683428
  N    -4.997263 -2.238313 -0.316748
  N    -4.436292  0.881873 -0.296021
  N    -5.571218 -2.815828  3.519860
  N    -5.062854  1.451003  3.504784
  S    -6.408229 -2.710886  2.093702
  S    -5.806187  0.936937  2.152282
  S    -3.406927 -2.141390 -0.738716
  S    -2.900660  1.355772 -0.761685
  S    -3.932385 -2.606163  3.349949
  S    -3.614040  2.150077  3.290478
