16  
    
  C     1.211969  0.330620  3.124484
  C     0.997824  4.195765  2.569486
  C     0.041336  0.079274  2.319651
  C    -0.013033  3.483384  1.936950
  N     2.356148  0.218960  2.420056
  N     2.093019  4.317816  1.858072
  N     0.252598 -0.094007  1.021202
  N     0.276593  3.190352  0.686735
  N    -0.802000  0.420300  4.760780
  N    -0.977634  3.968637  4.276522
  S    -1.390641  0.266925  3.191775
  S    -1.508893  3.205173  2.873265
  S     1.880211  0.002322  0.895504
  S     1.759162  3.753173  0.368173
  S     0.896195  0.617698  4.758711
  S     0.605304  4.415673  4.239414
