16  
    
  C    -5.434737 -2.388329  1.316060
  C    -5.426521  1.104747  1.301782
  C    -6.624956 -2.961211  0.750291
  C    -6.584043  0.581283  0.555595
  N    -4.419583 -2.340516  0.450607
  N    -4.419874  1.483055  0.505316
  N    -6.559653 -3.036493 -0.584779
  N    -6.483319  0.492619 -0.779584
  N    -6.868555 -3.065133  3.369919
  N    -7.163773  0.522068  3.149176
  S    -7.894689 -3.348990  2.010838
  S    -7.855932  0.094701  1.647274
  S    -4.981193 -2.744781 -1.029758
  S    -4.895566  1.060444 -1.066948
  S    -5.375057 -2.352250  3.065259
  S    -5.595980  1.207983  3.041927
