16  
    
  C     1.194425  0.321334  3.099531
  C     1.033240  4.178651  2.591851
  C    -0.003938  0.074095  2.324949
  C    -0.048815  3.560998  1.940927
  N     2.300032  0.223059  2.427855
  N     2.118850  4.329182  1.854434
  N     0.230538 -0.097859  1.023544
  N     0.283507  3.156740  0.727659
  N    -0.804565  0.383607  4.737083
  N    -1.008066  3.989872  4.262078
  S    -1.412077  0.256373  3.215059
  S    -1.490412  3.200020  2.907222
  S     1.880149  0.006230  0.885853
  S     1.763989  3.731417  0.355648
  S     0.875098  0.579406  4.776096
  S     0.617075  4.447156  4.231359
