16  
    
  C    -4.210707 -1.967400  1.911759
  C    -4.181005  1.361897  1.832131
  C    -5.507154 -2.306717  1.428304
  C    -5.412456  1.285933  1.061005
  N    -3.253683 -2.064624  0.963014
  N    -3.107346  1.359169  1.023022
  N    -5.616285 -2.493390  0.126875
  N    -5.272446  1.102422 -0.266939
  N    -5.693781 -2.273188  3.940296
  N    -6.070493  1.563248  3.567923
  S    -6.692946 -2.283313  2.647983
  S    -6.822795  1.251480  2.137830
  S    -4.027385 -2.397771 -0.439062
  S    -3.565473  1.150789 -0.538677
  S    -4.050638 -2.047406  3.669042
  S    -4.475722  1.512531  3.523262
