16  
    
  C     2.798384  1.391911  3.700711
  C     2.981994  5.281711  3.656881
  C     1.568629  1.071907  3.008935
  C     1.734006  4.980149  2.973477
  N     3.877700  1.547288  2.935115
  N     4.027283  5.273547  2.844446
  N     1.654123  0.997854  1.689045
  N     1.811432  4.897899  1.656818
  N     0.978725  0.721126  5.448215
  N     1.093019  4.898697  5.428000
  S     0.186515  0.654013  3.994774
  S     0.314586  4.982454  3.931265
  S     3.201303  1.209149  1.305264
  S     3.401033  4.973070  1.292848
  S     2.521514  1.341540  5.400866
  S     2.768567  5.249865  5.369904
