16  
    
  C     2.187744  0.969603  3.277576
  C     2.205853  4.368772  2.941347
  C     0.929345  0.652318  2.670801
  C     0.945642  4.114979  2.314843
  N     3.234372  1.045016  2.412936
  N     3.210290  4.660442  2.099183
  N     0.955062  0.546710  1.342066
  N     1.029171  3.951220  0.964911
  N     0.410348  0.971990  5.138641
  N     0.307680  4.357117  4.856492
  S    -0.419719  0.484028  3.802660
  S    -0.373408  3.815596  3.406616
  S     2.504058  0.831612  0.890290
  S     2.585931  4.220110  0.631760
  S     1.962401  1.280777  4.998708
  S     1.989387  4.645874  4.675227
