16  
    
  C    -0.189973  0.152782  2.556399
  C    -0.005575  3.693039  2.464811
  C    -1.362290 -0.507059  2.100479
  C    -1.193988  2.989873  1.882978
  N     0.773733  0.243832  1.635340
  N     0.962451  3.923628  1.593435
  N    -1.383498 -0.769592  0.795858
  N    -1.060206  2.680016  0.620518
  N    -1.643439 -0.361463  4.560209
  N    -1.733469  3.495324  4.358900
  S    -2.601483 -0.751861  3.245441
  S    -2.556051  2.897783  3.055224
  S     0.132114 -0.375125  0.209731
  S     0.454025  3.171963  0.194677
  S    -0.032419  0.016312  4.230534
  S    -0.201646  4.032263  4.112730
