16  
    
  C     3.016009  1.440686  3.328209
  C     3.029171  5.064887  3.306263
  C     1.738913  1.175811  2.666437
  C     1.812985  4.794002  2.566101
  N     4.116908  1.620957  2.596695
  N     4.119920  5.201628  2.541721
  N     1.902717  1.185712  1.345847
  N     2.047499  4.537215  1.291315
  N     1.196106  1.449176  5.224398
  N     1.103546  5.040373  5.099136
  S     0.383302  1.075394  3.798065
  S     0.460988  4.614727  3.632658
  S     3.493713  1.417860  1.000873
  S     3.664897  4.784881  0.986614
  S     2.881069  1.604533  5.047200
  S     2.762153  5.262465  5.039724
