16  
    
  C    -4.690167 -2.505975  1.667695
  C    -4.868069  1.226420  1.557993
  C    -5.920906 -3.122052  1.163186
  C    -6.005687  0.669519  0.818887
  N    -3.736073 -2.288917  0.747591
  N    -3.803068  1.446167  0.763539
  N    -5.964869 -3.154162 -0.161538
  N    -5.798307  0.305416 -0.447589
  N    -6.304803 -2.770554  3.683420
  N    -6.577105  0.775171  3.373253
  S    -7.244341 -3.015685  2.307157
  S    -7.246154  0.242825  1.937198
  S    -4.455437 -2.646044 -0.703544
  S    -4.241746  0.863447 -0.736956
  S    -4.779420 -2.154798  3.341975
  S    -5.001501  1.312858  3.281206
