16  
    
  C     3.188106  1.639041  3.284788
  C     3.056962  5.078207  3.365520
  C     1.904154  1.377382  2.652215
  C     1.870258  4.675486  2.681445
  N     4.161654  1.587364  2.383265
  N     4.154007  5.020997  2.617806
  N     1.960111  1.050719  1.346899
  N     1.986626  4.617730  1.345670
  N     1.440576  1.595574  5.159561
  N     1.278585  5.001620  5.203959
  S     0.518576  1.523022  3.791195
  S     0.465902  4.619753  3.828133
  S     3.595494  1.187287  0.955010
  S     3.682424  4.863276  1.047987
  S     3.063558  1.890772  5.025804
  S     2.903964  5.252830  5.109875
