16  
    
  C    -5.450478 -2.646926  1.554786
  C    -5.531036  0.941762  1.344641
  C    -6.647589 -3.082206  0.887197
  C    -6.696295  0.422130  0.685165
  N    -4.377106 -2.702143  0.762258
  N    -4.546729  1.256560  0.506696
  N    -6.544867 -3.118561 -0.445294
  N    -6.511449  0.334218 -0.605063
  N    -7.255738 -3.333118  3.380838
  N    -7.203422  0.459959  3.232746
  S    -8.031526 -3.401363  1.909504
  S    -8.019040  0.120496  1.778614
  S    -4.947297 -3.049434 -0.795425
  S    -5.000995  0.865368 -0.997572
  S    -5.746679 -2.539958  3.322978
  S    -5.695773  1.223907  3.119580
