16  
    
  C     0.767666  0.329974  2.878627
  C     0.689984  3.527899  2.715788
  C    -0.447211 -0.246682  2.322053
  C    -0.695129  3.426322  2.171912
  N     1.722324  0.557003  1.988840
  N     1.638397  3.913681  1.833498
  N    -0.316684 -0.447903  1.013814
  N    -0.647132  3.326677  0.838163
  N    -0.870628  0.107217  4.847014
  N    -0.932174  3.276996  4.727160
  S    -1.726286 -0.318928  3.455740
  S    -1.966196  3.112888  3.361730
  S     1.134566  0.086984  0.488232
  S     0.899124  3.692467  0.333521
  S     0.694335  0.614265  4.592420
  S     0.630532  3.501425  4.410688
