16  
    
  C     0.710885  0.324498  3.095721
  C     0.688797  3.904175  2.996205
  C    -0.576360  0.181914  2.471981
  C    -0.544445  3.477891  2.368018
  N     1.751965  0.335362  2.280097
  N     1.689473  4.000995  2.103954
  N    -0.537599  0.021863  1.138566
  N    -0.365693  2.886279  1.159419
  N    -1.105694  0.229839  4.993613
  N    -1.166847  3.922505  4.800136
  S    -1.935981  0.284090  3.560401
  S    -1.825801  3.206795  3.476075
  S     1.081339  0.128633  0.763313
  S     1.162808  3.377167  0.686804
  S     0.535999  0.487675  4.788246
  S     0.444074  4.402810  4.654475
