16  
    
  C    -3.010108 -1.702738  1.931661
  C    -3.393429  1.493493  2.122025
  C    -4.210862 -2.286668  1.363364
  C    -4.622561  1.234850  1.467993
  N    -2.053204 -1.544524  1.026846
  N    -2.310665  1.565030  1.348692
  N    -4.203314 -2.638235  0.057679
  N    -4.555691  0.956165  0.171192
  N    -4.594124 -2.058780  3.933724
  N    -5.267565  1.484522  3.942983
  S    -5.511799 -2.329881  2.566685
  S    -6.010830  1.186059  2.500297
  S    -2.723189 -2.084358 -0.468640
  S    -2.949986  1.110271 -0.179867
  S    -3.043556 -1.522987  3.697639
  S    -3.648534  1.797787  3.791083
