16  
    
  C    -4.634162 -2.217955  1.498700
  C    -4.460240  1.424480  1.882159
  C    -5.810377 -2.633132  0.726060
  C    -5.583193  0.758730  1.340916
  N    -3.594284 -1.787278  0.784510
  N    -3.489906  1.817153  1.075093
  N    -5.523513 -2.782234 -0.579344
  N    -5.545468  0.775014  0.013661
  N    -6.452481 -2.902359  3.231815
  N    -6.022620  0.871709  3.873377
  S    -7.074123 -3.323133  1.716966
  S    -6.793401  0.299530  2.448000
  S    -3.997346 -2.142428 -0.817985
  S    -4.130324  1.396945 -0.378295
  S    -4.850271 -2.399353  3.215061
  S    -4.418939  1.364244  3.619216
