16  
    
  C     1.397107  0.461722  3.026746
  C     0.958175  4.001122  2.618879
  C     0.208011  0.142887  2.283477
  C    -0.158199  3.459743  1.866859
  N     2.485741  0.322716  2.312843
  N     1.977378  4.296026  1.815211
  N     0.417674 -0.100976  0.976382
  N     0.161895  3.233170  0.586121
  N    -0.612289  0.649597  4.732896
  N    -0.961150  3.705615  4.304797
  S    -1.299397  0.334733  3.247672
  S    -1.592264  3.245305  2.783535
  S     2.062753 -0.044434  0.765685
  S     1.648035  3.817942  0.299659
  S     1.040625  0.909829  4.743811
  S     0.609199  4.215753  4.288719
