16  
    
  C    -1.820923 -1.013785  2.357946
  C    -1.881824  2.460294  2.612894
  C    -3.104089 -1.183320  1.748909
  C    -3.039257  1.930063  1.878073
  N    -0.842539 -1.003729  1.489884
  N    -0.816691  2.646059  1.815370
  N    -3.090681 -1.538068  0.464592
  N    -2.886700  1.895017  0.550295
  N    -3.370011 -1.250833  4.382796
  N    -3.694338  2.084800  4.322704
  S    -4.299423 -1.402915  3.020417
  S    -4.430051  1.608141  2.908833
  S    -1.496464 -1.364325  0.003318
  S    -1.286344  2.214273  0.262280
  S    -1.801168 -0.712582  4.066423
  S    -2.109814  2.548638  4.283527
