16  
    
  C    -4.285851 -1.844970  2.015608
  C    -4.136756  1.470878  1.898951
  C    -5.475672 -2.215100  1.368400
  C    -5.462791  1.161628  1.332719
  N    -3.242454 -1.765049  1.184611
  N    -3.105150  1.482855  1.078848
  N    -5.420290 -2.516829  0.079350
  N    -5.325099  0.937330  0.048968
  N    -6.049345 -2.058579  3.978843
  N    -5.826066  1.411626  3.858634
  S    -6.785009 -2.422365  2.564034
  S    -6.704124  0.988410  2.467166
  S    -3.837097 -2.309839 -0.295397
  S    -3.817938  1.110106 -0.379941
  S    -4.428295 -1.665607  3.739517
  S    -4.214538  1.777292  3.578366
