16  
    
  C     2.802848  1.417635  3.638387
  C     2.893738  5.345662  3.542269
  C     1.591983  0.843401  3.078346
  C     1.757328  4.788273  2.855987
  N     3.800144  1.689332  2.776278
  N     3.979020  5.462118  2.770811
  N     1.647570  0.575022  1.791182
  N     1.877571  4.763646  1.535034
  N     1.021902  1.505988  5.508539
  N     1.076998  5.039103  5.260850
  S     0.316695  0.706430  4.236674
  S     0.423082  4.503763  3.821024
  S     3.092428  1.096976  1.246623
  S     3.395399  5.285100  1.219465
  S     2.673770  1.663024  5.372431
  S     2.710062  5.338967  5.259627
