16  
    
  C     0.838995 -0.129218  2.809539
  C     0.473904  3.510800  2.957608
  C    -0.469105 -0.164993  2.231367
  C    -0.779559  3.434421  2.329651
  N     1.808695  0.009605  1.916953
  N     1.483752  3.817512  2.121260
  N    -0.478871 -0.250871  0.907310
  N    -0.830390  3.786200  1.047569
  N    -0.818054 -0.226815  4.832112
  N    -1.204956  2.999407  4.849276
  S    -1.705502 -0.524372  3.447799
  S    -2.139864  3.130225  3.475180
  S     1.125002 -0.142075  0.369578
  S     0.748284  3.906516  0.623420
  S     0.783838 -0.032879  4.536387
  S     0.389098  3.371176  4.697060
