16  
    
  C     3.115892  1.478950  3.329783
  C     3.136330  5.014789  3.405752
  C     1.887755  1.151700  2.673208
  C     1.934244  4.630595  2.707473
  N     4.148616  1.624000  2.497266
  N     4.189870  5.111819  2.595194
  N     1.915482  0.976811  1.351495
  N     2.035877  4.590790  1.394907
  N     1.275136  1.660959  5.178516
  N     1.181409  5.026055  5.082739
  S     0.522081  1.362754  3.721183
  S     0.475384  4.675289  3.610391
  S     3.469438  1.352739  0.960146
  S     3.618941  4.875574  1.074102
  S     2.942011  1.727782  5.042494
  S     2.833753  5.265021  5.076859
