16  
    
  C     0.002980 -0.677164  2.417945
  C    -0.259354  3.301075  2.621287
  C    -1.268245 -0.920150  1.808267
  C    -1.358265  2.543003  1.989172
  N     0.994523 -0.384093  1.576209
  N     0.702871  3.622003  1.772081
  N    -1.181515 -1.084825  0.483038
  N    -1.158444  2.373631  0.674635
  N    -1.673505 -0.854661  4.362148
  N    -1.908424  2.865177  4.500194
  S    -2.561101 -1.328190  2.966772
  S    -2.650644  2.253821  3.095255
  S     0.364624 -0.686573  0.107770
  S     0.381046  2.953626  0.310530
  S    -0.080128 -0.465694  4.176198
  S    -0.383837  3.487319  4.332694
