16  
    
  C    -4.578075 -2.190012  1.481393
  C    -4.400096  1.337412  1.906206
  C    -5.638207 -2.868668  0.765695
  C    -5.603513  0.776458  1.351625
  N    -3.517905 -1.810882  0.755847
  N    -3.520873  1.781673  1.030881
  N    -5.419943 -2.856936 -0.572984
  N    -5.613711  0.694147  0.016182
  N    -6.409179 -2.977723  3.206175
  N    -5.919045  0.862865  3.899204
  S    -7.024538 -3.283001  1.700990
  S    -6.796964  0.439650  2.542675
  S    -3.899854 -2.186908 -0.810832
  S    -4.115452  1.471697 -0.487166
  S    -4.844093 -2.433454  3.221183
  S    -4.424747  1.539299  3.726884
