16  
    
  C     2.817382  1.513633  3.592989
  C     2.961393  5.238522  3.503933
  C     1.647242  0.879079  3.067132
  C     1.754694  4.792855  2.806073
  N     3.728304  1.613769  2.613552
  N     3.942312  5.557197  2.644661
  N     1.657862  0.534987  1.791969
  N     1.857789  4.670543  1.494669
  N     1.051607  1.474409  5.504172
  N     1.032918  5.116608  5.232956
  S     0.371188  0.668193  4.216820
  S     0.431504  4.385581  3.840797
  S     3.132681  1.062760  1.196927
  S     3.365531  5.239771  1.105554
  S     2.695215  1.806054  5.419236
  S     2.731619  5.356669  5.243792
