16  
    
  C     1.419825  0.755185  2.956315
  C     0.986064  4.061568  2.673041
  C     0.204482  0.287495  2.276583
  C    -0.202329  3.649976  1.918422
  N     2.411100  1.031893  2.134259
  N     2.045736  4.357785  1.880801
  N     0.311732  0.110395  0.972633
  N     0.024660  3.388903  0.632187
  N    -0.306941  0.363842  4.856135
  N    -0.926217  3.774727  4.348915
  S    -1.152637  0.114123  3.515820
  S    -1.551605  3.135347  2.963509
  S     1.868427  0.644982  0.573627
  S     1.574582  4.014866  0.306101
  S     1.305875  0.756702  4.709994
  S     0.607258  4.387675  4.278515
