16  
    
  C    -0.170961 -0.321064  2.550407
  C     0.085139  3.599046  2.376062
  C    -1.438184 -0.714334  2.008905
  C    -1.244919  3.299076  1.792628
  N     0.813325 -0.197327  1.659702
  N     1.068536  3.706004  1.503400
  N    -1.497324 -0.685973  0.653746
  N    -1.156935  2.979288  0.505933
  N    -1.738186 -0.342888  4.578079
  N    -1.654573  3.516867  4.287805
  S    -2.673038 -0.673583  3.214153
  S    -2.532298  3.036806  2.930245
  S     0.073200 -0.356223  0.176395
  S     0.409381  3.349736  0.012814
  S    -0.119073 -0.097710  4.322452
  S    -0.098058  3.911159  4.064935
