16  
    
  C    -0.175306 -0.293706  2.747122
  C     0.151851  3.393861  2.322592
  C    -1.370338 -0.632303  2.012291
  C    -1.090651  3.207654  1.646532
  N     0.907627 -0.090673  2.004577
  N     1.110215  3.795492  1.463883
  N    -1.156052 -0.895402  0.745514
  N    -1.000483  3.065049  0.298883
  N    -2.061374 -0.609699  4.480086
  N    -1.469379  2.991084  4.235414
  S    -2.774194 -0.876696  2.977593
  S    -2.364406  2.908057  2.829506
  S     0.439936 -0.529078  0.477203
  S     0.570094  3.481961 -0.066352
  S    -0.445455 -0.289702  4.428697
  S     0.129467  3.408844  4.058226
