16  
    
  C     2.532672  1.088636  3.249446
  C     3.009430  5.385592  3.851322
  C     1.373699  0.526764  2.639023
  C     1.715912  4.947217  3.350268
  N     3.539237  1.287646  2.378420
  N     4.023328  5.135081  2.984446
  N     1.518789  0.282251  1.342959
  N     1.733731  4.664954  2.019834
  N     0.635427  0.799505  5.042579
  N     1.234851  5.703645  5.814513
  S    -0.102254  0.343796  3.627046
  S     0.356115  5.294506  4.418134
  S     3.057930  0.764685  0.926286
  S     3.309175  4.793795  1.549638
  S     2.182105  1.338924  4.957965
  S     2.905475  5.864845  5.564544
