16  
    
  C    -1.395013 -0.646078  1.819766
  C    -1.290913  3.353005  2.052209
  C    -2.660063 -1.221096  1.469654
  C    -2.472236  2.661132  1.510756
  N    -0.506006 -0.612044  0.826424
  N    -0.322253  3.647573  1.210318
  N    -2.775780 -1.398875  0.115773
  N    -2.404891  2.664917  0.206215
  N    -2.677975 -0.802059  4.017775
  N    -2.899577  2.868081  4.035427
  S    -3.651620 -1.490616  2.845522
  S    -3.624441  2.209856  2.686936
  S    -1.298166 -1.106101 -0.516427
  S    -0.934798  3.257848 -0.298685
  S    -1.187883 -0.269354  3.530476
  S    -1.449535  3.656549  3.771156
