16  
    
  C    -0.052705 -0.360895  2.427354
  C    -0.362450  3.387546  2.631476
  C    -1.248953 -1.001734  1.839100
  C    -1.637970  3.163719  2.038210
  N     0.974389 -0.290279  1.587500
  N     0.667697  3.378529  1.793369
  N    -1.140824 -0.932423  0.537667
  N    -1.623452  2.997079  0.727139
  N    -1.895783 -0.601947  4.252899
  N    -2.077769  3.227255  4.633472
  S    -2.584379 -1.309055  2.934214
  S    -2.903484  2.892499  3.193094
  S     0.366460 -0.617771  0.041615
  S    -0.051021  3.248904  0.261342
  S    -0.349054 -0.008190  4.076925
  S    -0.415826  3.665419  4.391224
