16  
    
  C    -5.722028 -2.723297  1.481808
  C    -5.558864  0.900675  1.491611
  C    -6.887104 -3.128375  0.774110
  C    -6.732097  0.422397  0.851214
  N    -4.719732 -2.389223  0.664017
  N    -4.509219  0.956643  0.656390
  N    -6.761499 -3.259956 -0.520003
  N    -6.633447  0.265373 -0.492706
  N    -7.642117 -2.807712  3.168187
  N    -7.338307  0.838554  3.249553
  S    -8.256279 -3.273880  1.741979
  S    -8.101659  0.219848  1.927049
  S    -5.236039 -2.804549 -0.861996
  S    -5.068804  0.602794 -0.825221
  S    -6.018619 -2.633206  3.202229
  S    -5.742220  1.014833  3.171042
