16  
    
  C    -4.733197 -2.505933  1.571324
  C    -4.699649  1.106813  1.443157
  C    -6.011285 -2.960159  1.036865
  C    -5.975398  0.789745  0.795387
  N    -3.763089 -2.420465  0.680023
  N    -3.653355  1.313809  0.677856
  N    -5.967379 -3.237932 -0.266522
  N    -5.846148  0.610671 -0.513793
  N    -6.292981 -2.706092  3.606529
  N    -6.522130  0.837323  3.246892
  S    -7.239436 -2.999663  2.267376
  S    -7.337199  0.339344  1.894005
  S    -4.413495 -2.854034 -0.775496
  S    -4.175338  0.862189 -0.891422
  S    -4.729303 -2.303646  3.350260
  S    -4.966235  1.185102  3.168440
