16  
    
  C     2.641676  1.278434  3.614069
  C     2.886251  4.998349  3.638652
  C     1.498016  0.908290  2.813392
  C     1.623090  5.039498  2.914336
  N     3.748635  1.515354  2.926429
  N     3.958389  5.007282  2.840857
  N     1.734239  0.899867  1.490971
  N     1.750867  4.791805  1.593193
  N     0.874394  0.789174  5.396827
  N     1.156210  5.295711  5.551245
  S     0.155001  0.545934  3.910746
  S     0.326440  5.116840  4.127599
  S     3.312198  1.350362  1.319486
  S     3.374243  4.920473  1.255470
  S     2.510774  1.137701  5.336321
  S     2.809398  5.240865  5.335382
