16  
    
  C     1.177352  0.189931  2.985887
  C     0.664530  3.881386  3.170837
  C    -0.066643 -0.414194  2.426851
  C    -0.481987  3.311284  2.501440
  N     2.117415  0.316323  2.066480
  N     1.786087  4.055840  2.471888
  N     0.056318 -0.806473  1.177591
  N    -0.359800  3.332343  1.211889
  N    -0.509458  0.206257  4.899184
  N    -1.040858  3.219206  5.000668
  S    -1.327463 -0.497132  3.618892
  S    -1.884657  2.956109  3.506378
  S     1.566667 -0.331208  0.607749
  S     1.243024  3.790578  0.871215
  S     1.088435  0.611867  4.700658
  S     0.528723  3.619647  4.858083
