16  
    
  C     1.596026  0.631357  2.844269
  C     0.844364  3.893079  2.501415
  C     0.346245  0.221055  2.227258
  C    -0.309545  3.349543  1.880258
  N     2.567983  0.833323  1.967752
  N     1.820307  4.131091  1.663850
  N     0.445491  0.089244  0.900755
  N    -0.231498  3.234555  0.531304
  N    -0.134736  0.614024  4.720504
  N    -0.775904  3.675914  4.387754
  S    -0.951769  0.009821  3.367817
  S    -1.613454  3.174651  3.006706
  S     2.017349  0.460434  0.478947
  S     1.319805  3.646903  0.157011
  S     1.488623  1.040548  4.490994
  S     0.754523  4.192864  4.251336
