16  
    
  C     1.400043  0.911735  3.289122
  C     1.252072  4.388022  3.105927
  C     0.125865  0.420691  2.795003
  C    -0.033876  4.053943  2.415425
  N     2.409698  0.927284  2.361236
  N     2.260802  4.605186  2.282305
  N     0.158623 -0.051798  1.547227
  N     0.038619  3.933252  1.107691
  N    -0.267959  0.941132  5.323790
  N    -0.582642  4.165768  4.866242
  S    -1.201397  0.399355  3.954682
  S    -1.383326  3.657112  3.483417
  S     1.682228  0.216164  0.953598
  S     1.583363  4.432961  0.711114
  S     1.354368  1.191501  5.040580
  S     1.021934  4.482185  4.847116
