16  
    
  C     2.454816  1.176074  3.335203
  C     2.859965  5.211238  3.851567
  C     1.321759  0.632765  2.617572
  C     1.641028  4.680675  3.266922
  N     3.587232  1.302137  2.639171
  N     3.834587  5.409974  2.940665
  N     1.660178  0.379269  1.359091
  N     1.891527  4.104553  2.064570
  N     0.563347  0.912882  5.095529
  N     1.231547  5.113839  5.755516
  S    -0.156087  0.461623  3.562950
  S     0.311095  4.729525  4.500720
  S     3.244291  0.788661  1.145142
  S     3.347353  4.754645  1.538881
  S     2.164956  1.386776  5.000958
  S     2.763322  5.724773  5.521941
