16  
    
  C    -5.689582 -2.710012  1.556970
  C    -5.523157  0.947683  1.427338
  C    -6.841157 -3.202580  0.817311
  C    -6.697892  0.413276  0.775303
  N    -4.576116 -2.569426  0.844882
  N    -4.543595  1.131153  0.544240
  N    -6.581701 -3.300002 -0.485857
  N    -6.569670  0.240220 -0.511547
  N    -7.509713 -3.024690  3.315011
  N    -7.294117  0.749354  3.280450
  S    -8.313612 -3.228540  1.834262
  S    -8.020777  0.172892  1.876865
  S    -5.012703 -2.824921 -0.742272
  S    -5.056537  0.699727 -0.933329
  S    -5.836448 -2.591098  3.267901
  S    -5.686599  1.061151  3.154444
