16  
    
  C    -1.935395 -1.116668  2.186006
  C    -1.820741  2.364474  2.041204
  C    -3.236056 -1.240010  1.573691
  C    -2.979884  1.955793  1.267459
  N    -0.938826 -0.914372  1.286481
  N    -0.739017  2.340786  1.282871
  N    -3.166725 -1.470016  0.224246
  N    -2.828896  1.843016 -0.048521
  N    -3.605095 -0.954984  4.109341
  N    -3.675500  2.035153  3.790124
  S    -4.521475 -1.205463  2.731919
  S    -4.417567  1.867457  2.300966
  S    -1.556305 -1.257934 -0.154131
  S    -1.220877  2.113758 -0.303318
  S    -1.928940 -0.889362  3.840537
  S    -2.031801  2.408102  3.749036
