16  
    
  C     1.324746  0.753398  3.196450
  C     1.070672  4.347312  2.937207
  C     0.055837  0.351844  2.643987
  C    -0.047439  3.923693  2.147784
  N     2.388199  0.793022  2.353975
  N     2.107748  4.793668  2.248998
  N     0.098258  0.074310  1.333927
  N     0.160397  3.768201  0.844145
  N    -0.277001  0.739680  5.192200
  N    -0.720592  3.899855  4.666852
  S    -1.204454  0.283008  3.862908
  S    -1.422318  3.577014  3.187686
  S     1.690540  0.333572  0.877171
  S     1.782735  4.304818  0.638306
  S     1.281686  1.192219  4.843055
  S     0.806453  4.350702  4.702230
