16  
    
  C     1.895607  0.546454  3.156301
  C     1.952412  4.084255  3.178468
  C     0.580778  0.352161  2.605041
  C     0.606348  3.986978  2.574982
  N     2.857809  0.511816  2.250174
  N     2.899694  4.385433  2.283487
  N     0.537583  0.264639  1.271366
  N     0.639726  3.883066  1.262479
  N     0.344846  0.504754  5.143596
  N     0.171625  4.285412  5.142995
  S    -0.593801  0.131637  3.816573
  S    -0.763049  4.049242  3.720995
  S     2.145980  0.342609  0.788943
  S     2.195847  4.061576  0.838644
  S     1.977664  0.787546  4.846926
  S     1.799747  4.245149  4.898045
