16  
    
  C    -0.162883 -0.131306  2.694171
  C     0.196984  3.499938  2.316152
  C    -1.354771 -0.602960  2.040835
  C    -1.103567  3.146688  1.688722
  N     0.953251 -0.165496  1.950360
  N     1.154968  3.762566  1.428640
  N    -1.224620 -0.748995  0.731674
  N    -1.089427  3.229904  0.379613
  N    -2.038522 -0.536292  4.477717
  N    -1.514395  3.145157  4.215836
  S    -2.790973 -0.832675  3.025353
  S    -2.357520  2.965152  2.824244
  S     0.368509 -0.551564  0.450211
  S     0.522741  3.478796 -0.083073
  S    -0.391631 -0.307195  4.394799
  S     0.107043  3.435907  4.053752
