16  
    
  C    -5.797866 -2.945114  1.334005
  C    -5.891367  0.797407  1.551619
  C    -6.899169 -3.663096  0.760784
  C    -7.054499  0.194941  0.917114
  N    -4.825939 -2.660311  0.462813
  N    -5.030126  1.251740  0.662225
  N    -6.760985 -3.805742 -0.546602
  N    -7.012238  0.032092 -0.414944
  N    -7.453527 -3.306214  3.257530
  N    -7.498306  0.304306  3.506876
  S    -8.208744 -3.936125  1.884314
  S    -8.359488 -0.186048  2.060936
  S    -5.356621 -3.082105 -1.000812
  S    -5.627269  0.818177 -0.822982
  S    -5.824171 -2.832742  3.063481
  S    -6.010825  1.100839  3.259988
