16  
    
  C     2.529445  1.217124  3.372902
  C     2.818523  5.065770  3.776716
  C     1.466002  0.625109  2.632338
  C     1.559047  4.642020  3.211252
  N     3.586038  1.368321  2.566445
  N     3.750237  5.206659  2.809308
  N     1.690471  0.284266  1.376346
  N     1.583436  4.232002  1.936246
  N     0.566936  0.877559  5.066172
  N     1.160327  4.931679  5.666636
  S     0.023621  0.529620  3.490213
  S     0.345746  4.352018  4.366562
  S     3.226765  0.815682  1.092236
  S     3.092491  4.584800  1.446278
  S     2.147502  1.381340  5.087005
  S     2.605649  5.658398  5.420200
