16  
    
  C    -3.962823 -1.809086  1.666017
  C    -3.827307  1.603602  1.784544
  C    -5.212950 -2.138549  1.050066
  C    -5.115767  1.233500  1.118126
  N    -2.891520 -1.665306  0.883543
  N    -2.811673  1.607270  0.934618
  N    -5.007318 -2.558205 -0.164748
  N    -5.075169  1.176391 -0.202492
  N    -5.781356 -2.074627  3.486157
  N    -5.549521  1.477996  3.664468
  S    -6.610275 -2.308724  2.039971
  S    -6.444097  1.340917  2.237204
  S    -3.404666 -2.313305 -0.581967
  S    -3.460059  1.424188 -0.635540
  S    -4.187301 -1.537717  3.379863
  S    -3.912929  1.730104  3.488235
