16  
    
  C    -4.915777 -2.576471  1.952381
  C    -5.233650  1.019766  1.789427
  C    -6.136110 -2.907371  1.213043
  C    -6.442145  0.467711  1.146050
  N    -3.872665 -2.401980  1.162670
  N    -4.190448  1.210789  0.976832
  N    -5.970304 -3.242322 -0.041788
  N    -6.363013  0.352710 -0.165913
  N    -6.722647 -2.516948  3.655209
  N    -7.085426  1.052664  3.602060
  S    -7.439564 -3.252797  2.299725
  S    -7.891423  0.547298  2.244841
  S    -4.354026 -2.818309 -0.360051
  S    -4.801521  0.812935 -0.556652
  S    -5.073465 -2.340103  3.653249
  S    -5.500228  1.330432  3.465437
