16  
    
  C    -2.992078 -1.372411  2.085706
  C    -3.202848  1.844281  1.953782
  C    -4.209708 -1.831522  1.452567
  C    -4.380662  1.555099  1.168126
  N    -1.995053 -1.164604  1.255714
  N    -2.109501  1.897823  1.212665
  N    -4.078019 -1.916017  0.151900
  N    -4.137951  1.331211 -0.142934
  N    -4.628388 -1.677809  3.985804
  N    -5.119435  1.709440  3.648696
  S    -5.525881 -2.003718  2.582290
  S    -5.769008  1.200042  2.230196
  S    -2.481148 -1.569455 -0.244840
  S    -2.482103  1.612998 -0.358081
  S    -3.111441 -1.079331  3.781133
  S    -3.508257  1.998975  3.670485
