16  
    
  C    -5.747641 -2.987254  1.213543
  C    -5.814895  0.849289  1.587432
  C    -6.955900 -3.534509  0.668427
  C    -6.917565  0.238726  0.950604
  N    -4.923886 -2.418579  0.349343
  N    -4.873411  1.158888  0.717283
  N    -6.849253 -3.764003 -0.655639
  N    -6.830575  0.131078 -0.370423
  N    -7.404897 -3.101868  3.179986
  N    -7.618046  0.613873  3.440235
  S    -8.126852 -3.851753  1.897821
  S    -8.280040 -0.049412  2.055238
  S    -5.421287 -2.978020 -1.151312
  S    -5.379551  0.774705 -0.783735
  S    -5.822526 -2.820838  2.946191
  S    -6.061199  1.019222  3.275523
