16  
    
  C    -1.914573 -1.103673  2.159313
  C    -1.824325  2.352282  2.022713
  C    -3.237691 -1.224464  1.566282
  C    -2.963686  1.966472  1.258270
  N    -0.920723 -0.909332  1.272284
  N    -0.741456  2.362692  1.267644
  N    -3.149405 -1.486573  0.236652
  N    -2.824127  1.840877 -0.051571
  N    -3.581727 -0.966934  4.096625
  N    -3.674387  2.013546  3.796456
  S    -4.507526 -1.204450  2.718156
  S    -4.412569  1.881389  2.299836
  S    -1.549981 -1.268274 -0.156988
  S    -1.205290  2.109787 -0.302727
  S    -1.905782 -0.904425  3.849164
  S    -2.027062  2.407344  3.748668
