16  
    
  C    -0.647445 -0.424816  2.678832
  C    -0.392729  3.358187  2.672812
  C    -1.917193 -0.773244  2.046988
  C    -1.373839  2.541364  2.060238
  N     0.328251 -0.214178  1.773274
  N     0.685484  3.628623  1.961113
  N    -1.756592 -1.109737  0.754278
  N    -1.081598  2.101335  0.852706
  N    -2.228627 -0.855116  4.641550
  N    -2.191131  3.074728  4.441699
  S    -3.101733 -0.996118  3.236947
  S    -2.835739  2.296292  3.132142
  S    -0.192655 -0.797652  0.339635
  S     0.377956  2.809264  0.505890
  S    -0.683249 -0.280279  4.362744
  S    -0.728721  3.725000  4.306038
