16  
    
  C     1.674671  0.829436  3.279267
  C     2.003694  4.476872  3.290070
  C     0.635542  0.189343  2.517285
  C     0.745769  4.173133  2.630512
  N     2.753452  1.215863  2.541924
  N     3.035880  4.695569  2.477550
  N     0.900252  0.000979  1.215630
  N     0.872861  3.884053  1.309441
  N    -0.312883  0.350234  4.907179
  N     0.406385  4.180388  5.163913
  S    -0.766754 -0.247261  3.443203
  S    -0.374928  3.682885  3.817776
  S     2.382632  0.657722  1.017861
  S     2.438930  4.430669  0.927148
  S     1.348067  0.794452  4.952759
  S     1.836712  4.875399  4.984679
