16  
    
  C     3.301528  1.673688  3.259503
  C     3.145314  5.186346  3.419535
  C     1.977281  1.571737  2.697616
  C     1.896389  4.753560  2.827479
  N     4.301339  1.437626  2.427008
  N     4.146027  5.170902  2.549645
  N     1.983984  1.293500  1.400733
  N     1.874437  4.628641  1.517011
  N     1.610497  1.581306  5.195197
  N     1.363382  5.023329  5.248853
  S     0.666299  1.591476  3.843717
  S     0.606634  4.538940  3.873190
  S     3.575409  1.133725  1.000568
  S     3.488563  4.669175  1.125021
  S     3.175347  2.002842  5.000583
  S     2.991324  5.213408  5.157567
