16  
    
  C    -1.379800 -0.598406  1.839991
  C    -1.220948  3.405605  2.137184
  C    -2.571363 -1.238066  1.488999
  C    -2.375119  2.754573  1.592723
  N    -0.523916 -0.517729  0.828174
  N    -0.315980  3.638989  1.204272
  N    -2.780163 -1.438438  0.154871
  N    -2.372112  2.550301  0.284982
  N    -2.805925 -0.547905  3.999946
  N    -2.757040  2.916755  4.106614
  S    -3.699584 -1.335099  2.828778
  S    -3.573685  2.326631  2.795778
  S    -1.312745 -1.023188 -0.533851
  S    -0.981398  3.243687 -0.256328
  S    -1.253202 -0.143047  3.556940
  S    -1.236348  3.522844  3.835833
