16  
    
  C     2.058029  0.688564  3.139029
  C     2.049233  4.497295  2.920111
  C     0.789962  0.456390  2.547742
  C     0.852066  3.910274  2.385228
  N     3.099848  0.634585  2.269692
  N     3.161173  4.528205  2.193626
  N     0.851656  0.160841  1.221358
  N     1.076065  3.645693  1.109296
  N     0.335796  1.001226  5.096088
  N     0.320386  4.453477  4.852675
  S    -0.540616  0.634917  3.709959
  S    -0.530473  3.941418  3.519168
  S     2.413569  0.284353  0.802175
  S     2.604410  4.006589  0.719819
  S     2.036681  0.976588  4.893773
  S     1.902571  4.780384  4.703087
