16  
    
  C    -4.184083 -2.305959  1.658293
  C    -4.284161  1.753578  1.897111
  C    -5.490072 -2.607482  1.024528
  C    -5.400927  1.121984  1.292885
  N    -3.213094 -2.266462  0.781423
  N    -3.192423  1.697983  1.170932
  N    -5.365452 -2.976610 -0.269611
  N    -5.287824  0.693821  0.059290
  N    -5.978944 -2.071933  3.572236
  N    -6.056934  1.464326  3.752655
  S    -6.785718 -2.711610  2.196541
  S    -6.823325  0.987882  2.280264
  S    -3.748076 -2.789512 -0.712966
  S    -3.613963  0.967918 -0.260072
  S    -4.310059 -1.833742  3.370661
  S    -4.511146  2.161546  3.532510
