16  
    
  C    -4.909049 -2.568787  1.954375
  C    -5.218553  1.022282  1.796527
  C    -6.138731 -2.913261  1.213432
  C    -6.436362  0.482205  1.150014
  N    -3.865435 -2.390003  1.163805
  N    -4.194063  1.219142  0.971347
  N    -5.960678 -3.238423 -0.040138
  N    -6.332457  0.340384 -0.153907
  N    -6.711180 -2.524858  3.649265
  N    -7.071316  1.051795  3.589474
  S    -7.440136 -3.262244  2.299675
  S    -7.891520  0.536683  2.246268
  S    -4.351260 -2.805841 -0.365944
  S    -4.798429  0.807757 -0.549982
  S    -5.069873 -2.340451  3.650421
  S    -5.493619  1.331031  3.469440
