16  
    
  C     2.746272  1.356227  3.681067
  C     2.983630  5.240817  3.634524
  C     1.509065  1.059791  2.974750
  C     1.710264  4.916425  2.971164
  N     3.831747  1.537481  2.938192
  N     4.029476  5.231423  2.783367
  N     1.642782  0.990146  1.672565
  N     1.781985  4.939505  1.640058
  N     0.969797  0.717734  5.415262
  N     1.103238  5.005235  5.461726
  S     0.165893  0.613964  3.940525
  S     0.291226  5.028003  4.000440
  S     3.257044  1.241401  1.318432
  S     3.424939  4.924522  1.268067
  S     2.549172  1.290869  5.402682
  S     2.766073  5.235534  5.385167
