16  
    
  C     1.566619  1.000817  3.218270
  C     1.880445  4.664801  3.292536
  C     0.359400  0.535321  2.537043
  C     0.698466  4.018934  2.720167
  N     2.612547  1.150432  2.439201
  N     2.947645  4.656475  2.441396
  N     0.521062  0.410876  1.215772
  N     0.825020  3.668462  1.443231
  N    -0.285886  0.632243  4.978692
  N     0.123773  4.545486  5.231082
  S    -0.920704  0.120014  3.606019
  S    -0.680331  4.136016  3.797730
  S     2.088983  0.756213  0.917834
  S     2.304684  4.119466  1.006898
  S     1.256129  1.230550  4.930892
  S     1.762838  4.864990  5.048708
