16  
    
  C     2.809031  1.409046  3.683314
  C     2.943394  5.231594  3.650482
  C     1.568976  1.056511  3.033671
  C     1.719661  5.118116  2.940503
  N     3.845189  1.528079  2.829658
  N     4.022415  5.314415  2.873208
  N     1.650903  0.964364  1.722730
  N     1.840558  4.801753  1.655944
  N     0.977616  0.763532  5.501487
  N     1.104116  4.801710  5.370760
  S     0.222960  0.703119  4.054063
  S     0.354262  4.927775  3.902497
  S     3.200107  1.203389  1.310284
  S     3.403520  5.049846  1.325257
  S     2.503074  1.391715  5.420789
  S     2.749563  5.275806  5.362470
