16  
    
  C    -0.928208 -0.669275  2.417091
  C    -0.584759  3.230348  2.857785
  C    -2.166180 -0.960284  1.794463
  C    -1.838500  2.863415  2.160477
  N     0.108379 -0.497243  1.556081
  N     0.423178  3.195980  2.017598
  N    -2.085899 -1.206603  0.490416
  N    -1.698565  2.395025  0.924812
  N    -2.753836 -0.733500  4.239356
  N    -2.414911  3.149026  4.722878
  S    -3.601592 -1.194048  2.858366
  S    -3.171160  2.766369  3.245708
  S    -0.492310 -1.006956  0.068114
  S    -0.138434  2.735981  0.530318
  S    -1.146621 -0.455083  4.122728
  S    -0.785124  3.596868  4.529101
