16  
    
  C    -3.538405 -2.680182  1.866179
  C    -3.574356  1.822593  1.831507
  C    -4.790420 -2.962283  1.220753
  C    -4.554063  0.951759  1.242723
  N    -2.485053 -2.421383  1.067265
  N    -2.582112  2.182891  1.030239
  N    -4.633970 -3.033411 -0.105427
  N    -4.393876  0.624075 -0.029477
  N    -5.433771 -2.676324  3.644107
  N    -5.337850  1.515803  3.627820
  S    -6.119953 -3.279681  2.253974
  S    -5.907340  0.707110  2.295109
  S    -3.053732 -2.656265 -0.459496
  S    -3.002321  1.440201 -0.437216
  S    -3.815130 -2.307283  3.554435
  S    -3.805704  2.160664  3.443888
