16  
    
  C     0.719642  0.324104  3.078490
  C     0.581076  3.967247  2.954167
  C    -0.570475  0.224251  2.416950
  C    -0.560879  3.284715  2.380296
  N     1.779648  0.435339  2.241916
  N     1.636967  3.989212  2.169639
  N    -0.481598 -0.031596  1.118754
  N    -0.391621  2.811693  1.180209
  N    -1.093118  0.256705  5.002234
  N    -1.133535  4.002377  4.822227
  S    -1.930785  0.295662  3.575794
  S    -1.836779  3.255269  3.490957
  S     1.134752  0.138509  0.713790
  S     1.127719  3.356740  0.672565
  S     0.545350  0.488235  4.825454
  S     0.428119  4.376343  4.670716
