16  
    
  C     3.164853  1.584365  3.274537
  C     3.070404  4.951965  3.385389
  C     1.889846  1.303659  2.696787
  C     1.848359  4.682725  2.658940
  N     4.173477  1.620935  2.388258
  N     4.162324  5.084344  2.638948
  N     1.964210  1.042993  1.412834
  N     2.000233  4.614335  1.360826
  N     1.388880  1.617551  5.151909
  N     1.258551  5.001046  5.180172
  S     0.518266  1.497316  3.772483
  S     0.483633  4.645225  3.784385
  S     3.574928  1.213463  0.929408
  S     3.675929  4.871212  1.061616
  S     3.024617  1.852738  5.023600
  S     2.883286  5.266330  5.082502
