16  
    
  C    -5.346878 -2.109197  1.680060
  C    -5.380085  1.234867  1.424214
  C    -6.551711 -2.648995  1.059504
  C    -6.637631  0.902578  0.796175
  N    -4.274041 -2.165081  0.864137
  N    -4.310506  1.245849  0.598495
  N    -6.496810 -2.904506 -0.240955
  N    -6.516288  0.647086 -0.519511
  N    -7.030445 -2.546123  3.573179
  N    -7.130136  1.068844  3.394575
  S    -7.816138 -2.776147  2.138579
  S    -7.881151  0.729740  1.941140
  S    -4.895716 -2.597716 -0.652683
  S    -4.903315  0.733062 -0.854975
  S    -5.466102 -1.964077  3.403487
  S    -5.452769  1.336428  3.149640
