16  
    
  C     1.009473  0.047001  2.962015
  C     0.989010  4.014121  2.751901
  C    -0.258837 -0.307366  2.461682
  C    -0.338488  3.501226  2.317907
  N     1.943541  0.118551  2.064214
  N     1.982756  3.921515  1.925757
  N    -0.342901 -0.352101  1.125395
  N    -0.304295  2.988229  1.116672
  N    -0.507974 -0.094029  4.996373
  N    -0.650745  4.170399  4.788696
  S    -1.503269 -0.493901  3.611278
  S    -1.553653  3.354650  3.571383
  S     1.198386 -0.030490  0.564006
  S     1.228223  3.275764  0.490285
  S     1.135891  0.193654  4.681331
  S     0.915992  4.446315  4.436519
