16  
    
  C     2.538704  1.076689  3.267540
  C     2.620226  4.982172  3.596275
  C     1.402969  0.615505  2.544257
  C     1.366126  4.510440  3.063876
  N     3.631543  1.258742  2.529690
  N     3.579880  5.237091  2.707965
  N     1.659007  0.412065  1.265323
  N     1.505167  4.154345  1.785751
  N     0.648094  1.079433  4.980886
  N     0.979110  4.947015  5.640604
  S    -0.014031  0.470463  3.593011
  S     0.215156  4.177500  4.379756
  S     3.262749  0.855527  1.018518
  S     3.039570  4.586294  1.309320
  S     2.273357  1.361060  4.955572
  S     2.530165  5.442734  5.285093
