16  
    
  C    -0.014196 -0.532209  2.461732
  C    -0.162803  3.264110  2.608092
  C    -1.206295 -1.128946  1.868288
  C    -1.270699  2.566196  1.960712
  N     0.987061 -0.312884  1.642477
  N     0.750529  3.758589  1.786975
  N    -1.158194 -1.142147  0.560640
  N    -1.022062  2.240352  0.692409
  N    -1.790246 -0.904195  4.382071
  N    -1.922364  2.828949  4.431818
  S    -2.548130 -1.303779  2.988037
  S    -2.603415  2.303892  3.026408
  S     0.364160 -0.578129  0.074766
  S     0.409367  3.023705  0.319975
  S    -0.168163 -0.545726  4.158589
  S    -0.397155  3.482665  4.318003
