16  
    
  C    -5.462654 -2.654803  1.580269
  C    -5.518479  0.906232  1.366533
  C    -6.673553 -3.094828  0.880069
  C    -6.695080  0.449536  0.749858
  N    -4.382503 -2.670670  0.809546
  N    -4.546861  1.240497  0.519070
  N    -6.595146 -3.128845 -0.457751
  N    -6.504460  0.296576 -0.575835
  N    -7.271875 -3.342426  3.370342
  N    -7.197687  0.462272  3.264191
  S    -8.037596 -3.348982  1.889212
  S    -8.022922  0.137349  1.777437
  S    -4.970210 -3.038858 -0.767773
  S    -5.021636  0.845473 -0.990574
  S    -5.797919 -2.540202  3.303517
  S    -5.697035  1.211721  3.095206
