16  
    
  C    -4.001676 -2.127580  1.727679
  C    -4.024263  1.461950  1.702446
  C    -5.327318 -2.424699  1.174645
  C    -5.274873  1.336957  1.020105
  N    -2.961866 -2.128939  0.840524
  N    -2.993620  1.436698  0.856943
  N    -5.289383 -2.399693 -0.154927
  N    -5.186533  1.102299 -0.279158
  N    -5.712851 -1.782333  3.611518
  N    -5.772420  1.599001  3.471983
  S    -6.643389 -2.280329  2.297015
  S    -6.663194  1.330366  2.100378
  S    -3.727301 -2.245349 -0.627956
  S    -3.569342  1.141013 -0.615371
  S    -4.090171 -1.769359  3.417697
  S    -4.107676  1.671784  3.395893
