16  
    
  C    -2.665793 -1.913958  2.009132
  C    -2.966620  2.240916  1.835938
  C    -3.907091 -1.994167  1.261102
  C    -3.991467  1.556347  1.136283
  N    -1.633117 -1.849101  1.204821
  N    -1.956744  2.591154  1.030931
  N    -3.800321 -2.214504 -0.038667
  N    -3.902905  1.561912 -0.194033
  N    -4.507148 -1.843300  3.795992
  N    -4.826181  1.710728  3.618199
  S    -5.261262 -2.104043  2.285595
  S    -5.479894  1.383095  2.104353
  S    -2.145536 -2.175022 -0.352108
  S    -2.403225  2.314615 -0.534049
  S    -2.881687 -1.747328  3.725076
  S    -3.268154  2.319819  3.537613
