16  
    
  C     1.193416  0.185452  2.995849
  C     0.636193  3.711485  3.197610
  C    -0.036424 -0.421294  2.441380
  C    -0.516454  3.395531  2.382042
  N     2.217704  0.305454  2.147139
  N     1.647875  4.104709  2.425909
  N     0.080652 -0.662371  1.152291
  N    -0.245652  3.231673  1.108332
  N    -0.571099  0.177268  4.883162
  N    -1.196417  3.114625  4.866520
  S    -1.376684 -0.448911  3.513625
  S    -1.839347  2.849467  3.366500
  S     1.608245 -0.222862  0.743278
  S     1.243853  3.860814  0.897277
  S     1.048567  0.608171  4.627667
  S     0.387196  3.672257  4.954718
