16  
    
  C     2.662776  1.130313  3.529589
  C     2.968098  4.932283  3.694004
  C     1.538314  0.677472  2.721778
  C     1.636664  4.964774  3.112918
  N     3.723393  1.491893  2.815298
  N     3.936387  4.881325  2.771871
  N     1.668803  0.713975  1.406166
  N     1.594652  4.888364  1.787821
  N     0.742044  0.845009  5.130121
  N     1.261244  5.552755  5.629523
  S     0.136460  0.352350  3.635312
  S     0.379804  5.308479  4.226870
  S     3.166744  1.307792  1.145907
  S     3.170140  4.754361  1.264471
  S     2.402829  1.074123  5.275275
  S     2.921352  5.384016  5.392767
