16  
    
  C    -3.068570 -1.566412  2.266567
  C    -3.318768  1.927670  2.016100
  C    -4.300655 -1.884056  1.595877
  C    -4.572842  1.510582  1.449194
  N    -2.004556 -1.412654  1.477594
  N    -2.354406  2.247635  1.163731
  N    -4.145518 -2.085629  0.296251
  N    -4.520549  1.353551  0.115775
  N    -4.891611 -1.636060  4.136856
  N    -4.910987  1.463051  3.943971
  S    -5.646549 -1.755560  2.710817
  S    -5.778795  1.064343  2.599787
  S    -2.570714 -1.667797 -0.047100
  S    -3.015656  1.770290 -0.300479
  S    -3.220471 -1.492175  4.004742
  S    -3.313198  1.862736  3.706711
