16  
    
  C     3.310254  1.464902  3.404618
  C     3.104322  5.029092  3.468389
  C     1.998240  1.336021  2.807202
  C     1.899248  4.495155  2.919965
  N     4.332371  1.477810  2.549684
  N     4.148382  5.079276  2.637431
  N     1.977960  1.197777  1.475496
  N     1.958868  4.409533  1.575608
  N     1.680522  1.807534  5.331033
  N     1.453431  4.999495  5.426974
  S     0.735536  1.641400  4.010737
  S     0.570761  4.687616  4.072889
  S     3.550201  1.345928  1.014598
  S     3.527627  4.725844  1.175805
  S     3.320442  1.710387  5.052771
  S     3.023360  5.359951  5.133603
