16  
    
  C     2.331616  0.780556  3.523372
  C     1.934372  5.071783  3.067650
  C     0.997390  0.670316  2.941967
  C     0.791978  4.466654  2.371443
  N     3.357192  0.687456  2.699007
  N     2.972069  5.473779  2.357542
  N     1.011702  0.654468  1.637159
  N     1.074447  4.214347  1.092648
  N     0.635577  1.108923  5.366604
  N     0.001278  4.793605  4.845849
  S    -0.266422  0.490013  4.174519
  S    -0.586830  4.090100  3.342885
  S     2.700811  0.639106  1.157649
  S     2.637116  4.773156  0.855155
  S     2.284788  1.111344  5.216106
  S     1.652108  5.251954  4.823691
