16  
    
  C     1.352379  0.353953  3.118529
  C     0.965271  3.931110  2.629786
  C     0.151880  0.147741  2.323794
  C    -0.121764  3.465966  1.815627
  N     2.484293  0.289232  2.351884
  N     1.960346  4.396503  1.890916
  N     0.371871 -0.080935  1.047024
  N     0.150065  3.189396  0.553671
  N    -0.648320  0.572021  4.661473
  N    -0.988032  3.735699  4.214909
  S    -1.358016  0.319890  3.237679
  S    -1.552172  3.249947  2.788557
  S     2.032707 -0.047429  0.757340
  S     1.701357  3.801652  0.327221
  S     0.976572  0.841518  4.777806
  S     0.636759  4.313398  4.323869
