16  
    
  C     2.512850  1.065199  3.251115
  C     2.449745  4.774760  3.456980
  C     1.288417  0.814410  2.539993
  C     1.347295  4.137427  2.752474
  N     3.575253  1.294682  2.473829
  N     3.534931  4.996627  2.686039
  N     1.459992  0.942352  1.237063
  N     1.533093  4.236280  1.442106
  N     0.606945  0.720968  5.032674
  N     0.595520  4.373719  5.208496
  S    -0.080402  0.265915  3.571536
  S    -0.139143  3.933836  3.732438
  S     3.052941  1.232323  0.930871
  S     3.053861  4.799217  1.104773
  S     2.307123  0.986583  4.997181
  S     2.135924  4.892755  5.200458
