16  
    
  C     2.036553  0.651631  3.225460
  C     1.957494  4.226546  3.082079
  C     0.703725  0.368873  2.694457
  C     0.629246  4.117991  2.477472
  N     2.976648  0.649007  2.270331
  N     2.965807  4.215508  2.220073
  N     0.680182  0.130764  1.377845
  N     0.680973  3.835546  1.200400
  N     0.352331  0.685120  5.182338
  N     0.214109  4.248707  5.056633
  S    -0.563461  0.381444  3.873249
  S    -0.675967  3.976529  3.644613
  S     2.289934  0.315180  0.791403
  S     2.302301  3.956504  0.724740
  S     2.056578  0.799457  4.969354
  S     1.867729  4.614146  4.802239
