16  
    
  C     2.153551  1.084408  3.445779
  C     2.043177  4.957299  3.151096
  C     0.897454  0.687304  2.851467
  C     0.869908  4.600271  2.450065
  N     3.194916  1.214054  2.605108
  N     3.073446  5.269072  2.386310
  N     1.026473  0.459724  1.532987
  N     1.101793  4.435129  1.145631
  N     0.551073  1.036906  5.386286
  N     0.280545  4.396831  5.027432
  S    -0.362046  0.524329  4.131180
  S    -0.491345  4.169893  3.511731
  S     2.575473  0.767135  1.138041
  S     2.635307  4.937168  0.824941
  S     2.184781  1.224898  5.142434
  S     1.874572  4.850298  4.818832
