16  
    
  C    -3.971288 -2.051862  1.685827
  C    -3.563596  2.009016  1.732708
  C    -5.153175 -2.557056  1.061861
  C    -4.831595  1.555064  1.083220
  N    -2.916096 -1.800037  0.884111
  N    -2.597557  2.341484  0.887791
  N    -5.104708 -2.576680 -0.265293
  N    -4.728270  1.356191 -0.222400
  N    -5.577846 -2.615450  3.590642
  N    -5.130556  1.318123  3.608532
  S    -6.406740 -2.701409  2.149763
  S    -6.018410  1.033032  2.205394
  S    -3.567467 -2.071150 -0.648135
  S    -3.210109  1.822822 -0.642402
  S    -3.976915 -2.189272  3.444270
  S    -3.652919  2.169345  3.423023
