16  
    
  C    -4.380033 -2.404615  1.512134
  C    -4.413293  1.537768  1.950818
  C    -5.505287 -3.003343  0.788162
  C    -5.590023  1.006040  1.363670
  N    -3.302472 -2.129938  0.773868
  N    -3.458894  1.775355  1.073869
  N    -5.333254 -2.997312 -0.560469
  N    -5.617733  0.791685  0.058621
  N    -6.263859 -2.929200  3.264572
  N    -5.893433  1.026125  3.884819
  S    -6.931819 -3.258388  1.780121
  S    -6.791355  0.595187  2.530951
  S    -3.797863 -2.337927 -0.795108
  S    -4.051515  1.315881 -0.368102
  S    -4.732773 -2.359609  3.163287
  S    -4.417322  1.702843  3.661860
