16  
    
  C    -1.382019 -0.475180  1.911988
  C    -1.160700  3.310076  2.172515
  C    -2.549994 -1.180900  1.530210
  C    -2.460221  2.815781  1.596414
  N    -0.486661 -0.307209  0.924720
  N    -0.379015  3.752857  1.210848
  N    -2.567183 -1.511418  0.241640
  N    -2.439138  2.533391  0.295212
  N    -2.822870 -0.651947  4.051241
  N    -2.691193  2.922570  4.188192
  S    -3.828823 -1.196284  2.775981
  S    -3.629905  2.493231  2.882792
  S    -1.205393 -0.945165 -0.403905
  S    -0.934374  3.094177 -0.238035
  S    -1.293003 -0.142624  3.576225
  S    -1.113197  3.367991  3.889711
