16  
    
  C    -1.048361 -0.469908  2.454537
  C    -1.087140  3.180103  2.427470
  C    -2.174480 -0.976714  1.709611
  C    -2.359820  2.745736  1.785038
  N    -0.035036 -0.126448  1.606410
  N    -0.036938  3.032396  1.616041
  N    -1.944972 -1.180880  0.400647
  N    -2.279445  2.454756  0.484133
  N    -2.766665 -1.068982  4.209390
  N    -2.953722  3.163179  4.218493
  S    -3.430580 -1.460437  2.768125
  S    -3.769393  3.053613  2.776098
  S    -0.434794 -0.637911  0.105870
  S    -0.676856  2.679100  0.090818
  S    -1.173810 -0.553605  4.208299
  S    -1.293505  3.281342  4.122699
