16  
    
  C     2.267350  1.024776  3.461455
  C     2.193557  4.784903  3.150983
  C     1.011413  0.667000  2.852530
  C     0.959553  4.407886  2.519190
  N     3.280363  1.216548  2.581812
  N     3.184241  5.063109  2.323139
  N     0.989082  0.625585  1.536718
  N     0.988642  4.403826  1.193051
  N     0.452719  0.861012  5.337949
  N     0.488012  4.302122  5.119170
  S    -0.273308  0.481589  3.957417
  S    -0.284777  4.043283  3.623398
  S     2.527036  0.998741  1.043419
  S     2.480362  4.951064  0.793194
  S     2.026337  1.377223  5.203088
  S     2.081742  4.683597  4.909563
