16  
    
  C    -3.004090 -1.682164  1.941745
  C    -3.370676  1.474767  2.129801
  C    -4.193100 -2.313474  1.383345
  C    -4.613261  1.265847  1.450827
  N    -2.024995 -1.583804  1.026015
  N    -2.301129  1.576859  1.336017
  N    -4.209157 -2.597257  0.072087
  N    -4.560997  0.964491  0.149977
  N    -4.588978 -2.052575  3.945084
  N    -5.264376  1.511933  3.985473
  S    -5.502485 -2.302666  2.572115
  S    -5.992529  1.189777  2.531069
  S    -2.729050 -2.072695 -0.445777
  S    -2.961780  1.122980 -0.199031
  S    -3.043638 -1.535450  3.700874
  S    -3.636505  1.782076  3.789436
