16  
    
  C    -5.824280 -2.905320  1.278069
  C    -5.861540  0.814254  1.559450
  C    -6.896006 -3.700939  0.722526
  C    -7.022596  0.168361  0.948212
  N    -4.859609 -2.592938  0.427830
  N    -4.924738  1.231453  0.709755
  N    -6.778234 -3.819780 -0.621537
  N    -6.974918  0.029776 -0.373615
  N    -7.442100 -3.209786  3.230664
  N    -7.557166  0.377692  3.460412
  S    -8.225474 -3.937369  1.923172
  S    -8.346660 -0.137783  2.067168
  S    -5.360144 -3.030507 -1.051793
  S    -5.556170  0.825566 -0.826252
  S    -5.779190 -2.843853  3.025040
  S    -6.016558  1.088684  3.262951
