16  
    
  C    -2.516875 -1.870498  1.953586
  C    -3.081614  2.143440  1.749818
  C    -3.782171 -2.171962  1.322608
  C    -4.233791  1.642683  0.977045
  N    -1.513723 -1.995453  1.078309
  N    -2.047931  2.506145  0.959000
  N    -3.807936 -2.236995 -0.029600
  N    -4.004336  1.474107 -0.342936
  N    -4.279678 -1.724838  3.828495
  N    -5.003360  1.599203  3.499864
  S    -5.086349 -1.817489  2.400958
  S    -5.479181  0.970487  2.062380
  S    -2.234605 -2.178943 -0.425260
  S    -2.489395  1.990639 -0.624777
  S    -2.640085 -1.589016  3.678581
  S    -3.440292  2.230458  3.441690
