16  
    
  C    -1.025603 -0.846246  2.308442
  C    -0.758012  3.139398  2.684263
  C    -2.245304 -1.246804  1.768364
  C    -1.960898  2.581114  2.029865
  N    -0.043569 -0.565589  1.443668
  N     0.309660  3.184996  1.873356
  N    -2.050328 -1.619351  0.490713
  N    -1.799293  2.247756  0.751882
  N    -2.797404 -0.829956  4.187868
  N    -2.524616  3.043493  4.522460
  S    -3.679583 -1.296070  2.842687
  S    -3.304981  2.693014  3.121886
  S    -0.581555 -1.171028 -0.017774
  S    -0.220585  2.653437  0.365990
  S    -1.226143 -0.342194  3.947213
  S    -0.884541  3.298768  4.380087
