16  
    
  C     1.772956  0.622981  3.239478
  C     2.084376  4.549660  3.335735
  C     0.633375  0.163300  2.430575
  C     0.830124  4.066397  2.709042
  N     2.821394  0.948513  2.533402
  N     2.967468  4.977736  2.455560
  N     0.836358  0.162900  1.113232
  N     0.873865  3.974859  1.407391
  N    -0.251550  0.143219  4.939966
  N     0.392088  4.042441  5.201718
  S    -0.727588 -0.338150  3.420128
  S    -0.492129  3.663289  3.789937
  S     2.409614  0.678577  0.914502
  S     2.414437  4.510259  0.886746
  S     1.439864  0.657123  4.983689
  S     1.895658  4.635385  5.026877
