16  
    
  C     2.170353  1.072325  3.450736
  C     2.055509  5.008741  3.134420
  C     0.896017  0.681928  2.848357
  C     0.885018  4.521722  2.459707
  N     3.203998  1.203094  2.626290
  N     3.100943  5.284855  2.381303
  N     1.003257  0.479192  1.546769
  N     1.072796  4.462789  1.142592
  N     0.506902  1.041917  5.393177
  N     0.338058  4.405696  4.993408
  S    -0.371861  0.498382  4.108126
  S    -0.505623  4.154474  3.529701
  S     2.572246  0.797772  1.124858
  S     2.620717  4.919898  0.823423
  S     2.199651  1.254851  5.132223
  S     1.911328  4.804269  4.842042
