16  
    
  C    -2.944526 -1.665221  1.969077
  C    -2.572667  2.120632  2.003369
  C    -4.134081 -2.110801  1.260938
  C    -3.868063  1.782628  1.360157
  N    -1.910038 -1.289884  1.237650
  N    -1.530429  2.171407  1.192307
  N    -3.866254 -2.309483 -0.015091
  N    -3.712783  1.632138  0.030167
  N    -4.662900 -2.187117  3.782896
  N    -4.296049  2.216719  3.903913
  S    -5.464409 -2.646597  2.362925
  S    -5.158182  2.066873  2.510605
  S    -2.371857 -1.678851 -0.315167
  S    -2.126759  1.801529 -0.346651
  S    -3.119443 -1.618425  3.658051
  S    -2.615961  2.355020  3.750970
