16  
    
  C    -1.339673 -0.416547  2.039913
  C    -1.185387  3.301049  2.194865
  C    -2.611121 -0.953046  1.483074
  C    -2.450502  2.772668  1.670944
  N    -0.484488 -0.159041  1.083208
  N    -0.234153  3.400013  1.279409
  N    -2.510444 -1.408660  0.252945
  N    -2.483740  2.568641  0.341075
  N    -2.851377 -0.708069  4.049031
  N    -2.729055  2.945219  4.268569
  S    -3.768816 -1.200502  2.758973
  S    -3.685479  2.635486  2.906276
  S    -0.993296 -0.913857 -0.311106
  S    -0.971429  3.056034 -0.192895
  S    -1.357597 -0.164061  3.759723
  S    -1.129402  3.310482  3.875398
