16  
    
  C     3.300904  1.498003  3.585992
  C     3.081682  5.170418  3.430081
  C     2.064454  1.023140  3.005681
  C     2.011493  4.405792  2.738561
  N     4.271794  1.578064  2.704904
  N     4.043718  5.496686  2.566949
  N     2.060037  0.809455  1.687840
  N     2.135753  4.331320  1.434216
  N     1.715318  1.420373  5.575005
  N     1.146529  5.021062  5.083345
  S     0.815551  0.979749  4.287808
  S     0.600709  4.155314  3.767281
  S     3.656254  1.191665  1.260225
  S     3.677999  4.978948  1.084698
  S     3.228215  1.962019  5.257890
  S     2.778591  5.411721  5.139487
