16  
    
  C    -4.606660 -2.415473  1.481903
  C    -4.448808  1.293130  1.882426
  C    -5.830360 -2.716209  0.826491
  C    -5.620632  0.760887  1.178972
  N    -3.588445 -1.973417  0.721961
  N    -3.492114  1.617809  1.038063
  N    -5.726697 -2.732980 -0.517464
  N    -5.555898  0.760292 -0.175866
  N    -6.444986 -2.949868  3.313861
  N    -6.118723  0.706707  3.811352
  S    -7.173068 -3.160528  1.850841
  S    -6.864117  0.333377  2.319476
  S    -4.200001 -2.120502 -0.849228
  S    -4.058668  1.336389 -0.499034
  S    -4.936340 -2.300389  3.198126
  S    -4.513062  1.132060  3.692706
