16  
    
  C    -5.461545 -2.242199  1.482644
  C    -5.237475  0.960812  1.386948
  C    -6.621125 -2.781161  0.868207
  C    -6.509115  0.514368  0.759566
  N    -4.447248 -2.009856  0.678940
  N    -4.278591  1.333812  0.557038
  N    -6.468315 -2.950751 -0.447023
  N    -6.428478  0.349733 -0.550930
  N    -7.101302 -2.524933  3.437620
  N    -7.102770  0.916153  3.264157
  S    -7.885469 -2.903925  2.032453
  S    -7.825558  0.373918  1.836172
  S    -4.971944 -2.380232 -0.814763
  S    -4.908050  0.956923 -0.972875
  S    -5.530159 -2.139632  3.242137
  S    -5.525802  1.346243  3.063182
