16  
    
  C    -2.077770 -0.954793  2.286140
  C    -1.949954  2.250122  2.064615
  C    -3.335729 -1.302720  1.666962
  C    -3.204048  1.923580  1.345024
  N    -1.038686 -0.989078  1.501292
  N    -0.943161  2.360586  1.205203
  N    -3.310036 -1.371992  0.373079
  N    -3.123965  1.814515  0.014492
  N    -3.843530 -1.078500  4.137895
  N    -3.782618  2.390756  3.803418
  S    -4.699521 -1.220071  2.708801
  S    -4.533838  1.784469  2.462505
  S    -1.734991 -1.242276 -0.043805
  S    -1.528344  2.134421 -0.355966
  S    -2.255052 -0.627969  3.990822
  S    -2.140159  2.466728  3.767240
