16  
    
  C    -3.712656 -2.396457  1.683192
  C    -3.418821  1.805830  1.683663
  C    -4.976731 -2.698920  1.046591
  C    -4.557390  1.171205  1.057890
  N    -2.674111 -2.193343  0.910391
  N    -2.412180  1.876870  0.834587
  N    -4.827949 -2.740284 -0.283038
  N    -4.418080  0.858893 -0.202794
  N    -5.463597 -2.859110  3.598957
  N    -5.112036  1.481466  3.487677
  S    -6.351939 -2.839151  2.145744
  S    -5.827326  0.803338  2.183081
  S    -3.249224 -2.449274 -0.639274
  S    -2.868308  1.269699 -0.552577
  S    -3.828899 -2.642931  3.433123
  S    -3.600690  2.087162  3.303015
