16  
    
  C     1.127546  0.254368  3.069419
  C     0.990630  4.258214  2.600952
  C    -0.104073  0.079646  2.295452
  C    -0.014122  3.426931  1.991792
  N     2.251299  0.308644  2.369330
  N     2.075077  4.321696  1.809658
  N     0.156171 -0.115621  0.996981
  N     0.166527  3.129271  0.688654
  N    -0.868189  0.135778  4.838194
  N    -0.871769  4.176616  4.307077
  S    -1.607619  0.180551  3.337200
  S    -1.407760  3.231042  2.994665
  S     1.797551 -0.000537  0.774894
  S     1.711960  3.546458  0.367626
  S     0.806286  0.413982  4.822899
  S     0.693816  4.647084  4.331488
