16  
    
  C     2.383108  1.050797  3.247711
  C     2.929491  5.453361  3.897899
  C     1.235671  0.554912  2.564272
  C     1.719940  4.906660  3.329729
  N     3.443557  1.174471  2.472095
  N     4.010665  5.309735  3.129215
  N     1.457515  0.329616  1.269097
  N     1.819605  4.612864  2.010516
  N     0.568846  1.189749  4.954567
  N     1.141229  5.835230  5.737789
  S    -0.088039  0.390959  3.639780
  S     0.398383  4.976212  4.483951
  S     3.047911  0.767524  1.020553
  S     3.421993  4.860659  1.658725
  S     2.174846  1.310680  4.924086
  S     2.817236  5.912112  5.586878
