16  
    
  C     2.659725  1.222396  3.579425
  C     2.866003  5.050730  3.611420
  C     1.489442  0.836400  2.802046
  C     1.607847  4.943965  2.960026
  N     3.794028  1.552892  2.955703
  N     3.939294  4.888953  2.854704
  N     1.738844  0.860667  1.485649
  N     1.696152  4.796344  1.633136
  N     0.844874  0.816359  5.369522
  N     1.181768  5.377966  5.557703
  S     0.153236  0.523579  3.898406
  S     0.327589  5.152653  4.122523
  S     3.304042  1.372340  1.277340
  S     3.341274  4.926583  1.285317
  S     2.459704  1.093214  5.289777
  S     2.854643  5.249599  5.315558
