16  
    
  C     1.289116  0.304032  3.113487
  C     0.953091  4.165552  2.610954
  C     0.111017  0.122879  2.336161
  C    -0.072867  3.343529  1.885107
  N     2.435504  0.248195  2.443570
  N     2.084866  4.365212  1.886338
  N     0.300129 -0.091199  1.028952
  N     0.201039  3.208532  0.574528
  N    -0.752913  0.482958  4.746634
  N    -0.943993  3.890699  4.254536
  S    -1.380420  0.287806  3.183969
  S    -1.525626  3.225828  2.817211
  S     1.913201 -0.017954  0.850613
  S     1.749217  3.778604  0.368296
  S     0.926856  0.705562  4.757468
  S     0.609425  4.376645  4.284392
