16  
    
  C    -0.162669 -0.197977  2.726454
  C     0.166427  3.384318  2.287735
  C    -1.377830 -0.639764  2.043471
  C    -1.084972  3.220182  1.673201
  N     0.962339 -0.122077  1.962478
  N     1.086118  3.809195  1.445217
  N    -1.172995 -0.835203  0.737487
  N    -1.036892  3.128281  0.333964
  N    -2.065281 -0.588444  4.474423
  N    -1.492627  3.047167  4.204203
  S    -2.783868 -0.857706  2.993173
  S    -2.351963  2.930716  2.836439
  S     0.402449 -0.538328  0.492845
  S     0.564931  3.474939 -0.072364
  S    -0.424278 -0.301068  4.400380
  S     0.123988  3.416332  4.063002
