16  
    
  C     1.941669  0.616868  3.171896
  C     1.819843  4.237582  3.124640
  C     0.611056  0.405899  2.641426
  C     0.533349  3.982289  2.522733
  N     2.944315  0.572863  2.291555
  N     2.855565  4.246964  2.327889
  N     0.605524  0.270257  1.282192
  N     0.611216  3.859921  1.244236
  N     0.354828  0.635719  5.217409
  N     0.199344  4.302122  5.021446
  S    -0.559171  0.188888  3.885438
  S    -0.675208  4.027926  3.704689
  S     2.212399  0.302631  0.829159
  S     2.264364  4.024542  0.778798
  S     1.996132  0.772287  4.856880
  S     1.838058  4.375256  4.845783
