16  
    
  C    -2.490455 -1.210981  2.156169
  C    -2.776409  2.688307  2.363429
  C    -3.691802 -1.660514  1.459949
  C    -3.802592  1.895118  1.725292
  N    -1.459208 -0.901574  1.393387
  N    -1.808607  3.019908  1.508572
  N    -3.411063 -1.877419  0.183362
  N    -3.744611  1.826914  0.368636
  N    -4.156916 -1.763578  4.085087
  N    -4.382868  2.066846  4.264029
  S    -4.947721 -2.109636  2.638053
  S    -4.991968  1.361535  2.846416
  S    -1.876522 -1.253736 -0.143732
  S    -2.243299  2.486893  0.033899
  S    -2.729538 -0.947607  3.827980
  S    -2.842287  2.727846  4.087093
