16  
    
  C     2.002847  0.953691  3.005015
  C     2.189530  4.445826  3.099352
  C     0.782749  0.450274  2.411159
  C     1.091623  4.029059  2.296634
  N     2.994339  1.132734  2.172997
  N     3.310115  4.295937  2.425100
  N     0.914630  0.132502  1.133234
  N     1.283882  3.796827  1.005068
  N     0.257849  1.055190  4.797424
  N     0.233465  4.475088  4.723333
  S    -0.608163  0.702056  3.437839
  S    -0.382233  3.822470  3.199666
  S     2.478486  0.592717  0.698791
  S     2.981675  4.016519  0.804230
  S     1.845290  1.317078  4.703374
  S     1.901661  4.735651  4.756063
