16  
    
  C    -5.033481 -2.490569  1.888002
  C    -5.432265  1.182952  1.622657
  C    -6.316343 -2.834568  1.320437
  C    -6.725609  0.883204  0.986814
  N    -4.018695 -2.491666  1.026304
  N    -4.400203  1.058545  0.791131
  N    -6.186699 -3.185561  0.036466
  N    -6.630956  0.723073 -0.335774
  N    -6.883774 -2.220105  3.790756
  N    -7.182310  1.089001  3.494116
  S    -7.714359 -2.745380  2.417624
  S    -8.046718  0.848988  2.048148
  S    -4.615257 -3.090120 -0.406326
  S    -4.998936  0.838296 -0.727472
  S    -5.213097 -2.187158  3.616596
  S    -5.520009  1.272032  3.360927
