16  
    
  C     1.098899  0.230851  3.035192
  C     0.403464  3.811893  3.004929
  C    -0.060275 -0.060017  2.336356
  C    -0.493340  3.008877  2.150670
  N     2.199199  0.435515  2.311823
  N     1.548547  4.162072  2.427243
  N     0.107466 -0.190071  1.046675
  N    -0.176399  3.014278  0.871151
  N    -0.749044 -0.067724  4.734967
  N    -1.465122  3.099639  4.540160
  S    -1.457546 -0.292217  3.309041
  S    -1.840105  2.529369  3.083938
  S     1.667919  0.092265  0.755516
  S     1.311448  3.795596  0.805461
  S     0.846173  0.342040  4.712139
  S     0.098824  3.818043  4.738992
