16  
    
  C    -2.138983 -0.913149  2.316139
  C    -2.026379  2.281520  1.965961
  C    -3.388372 -1.282737  1.681436
  C    -3.284659  2.021553  1.379081
  N    -1.084764 -0.874768  1.477678
  N    -0.989629  2.423599  1.133428
  N    -3.286711 -1.416744  0.332004
  N    -3.177955  1.733202  0.077996
  N    -3.876013 -1.174700  4.130525
  N    -3.811896  2.377493  3.854356
  S    -4.730988 -1.220155  2.741610
  S    -4.598710  1.840360  2.483695
  S    -1.670073 -1.298917  0.003458
  S    -1.624304  2.127120 -0.338657
  S    -2.293664 -0.646760  4.000524
  S    -2.151497  2.504191  3.722734
