16  
    
  C    -0.981888 -0.856356  2.252368
  C    -0.749274  2.947340  2.458505
  C    -2.080040 -1.448173  1.648336
  C    -2.043977  2.683872  1.840334
  N     0.066956 -0.650057  1.479748
  N     0.323119  3.018898  1.675896
  N    -1.859702 -1.777274  0.408953
  N    -1.875344  2.382825  0.555691
  N    -2.815066 -0.809674  4.042626
  N    -2.478435  2.736842  4.427420
  S    -3.473409 -1.538361  2.728594
  S    -3.296771  2.425252  2.970163
  S    -0.338635 -1.317906  0.017371
  S    -0.290263  2.771620  0.129163
  S    -1.268705 -0.239307  3.891500
  S    -0.858356  3.270393  4.168020
