16  
    
  C    -1.186060 -0.554753  2.279009
  C    -1.175745  2.981011  2.316097
  C    -2.309781 -1.135515  1.619467
  C    -2.473077  2.934609  1.699865
  N    -0.129644 -0.361856  1.501806
  N    -0.192070  2.956693  1.435469
  N    -2.303237 -1.044514  0.291966
  N    -2.450818  2.696455  0.390862
  N    -2.943615 -0.801284  4.175361
  N    -2.871054  3.180517  4.207141
  S    -3.613355 -1.399136  2.745090
  S    -3.796713  2.787458  2.895811
  S    -0.704868 -0.530632 -0.065426
  S    -0.868454  2.831456 -0.046110
  S    -1.373510 -0.192545  3.993512
  S    -1.257689  3.267556  3.983156
