16  
    
  C    -1.662929 -1.160607  2.651792
  C    -1.795443  2.586547  2.398587
  C    -2.850174 -1.561339  1.940863
  C    -3.005677  2.237596  1.749366
  N    -0.592153 -0.913676  1.886764
  N    -0.704749  2.583116  1.621507
  N    -2.648439 -1.583905  0.623715
  N    -2.877083  2.119107  0.426000
  N    -3.451471 -1.569290  4.366730
  N    -3.605667  2.360612  4.248511
  S    -4.207465 -1.777248  2.925583
  S    -4.377388  2.103761  2.800535
  S    -1.070801 -1.229138  0.365096
  S    -1.286635  2.394577  0.052760
  S    -1.879792 -1.029197  4.362121
  S    -1.939858  2.610825  4.180478
