16  
    
  C    -1.701199 -1.057107  2.615001
  C    -1.813336  2.477963  2.441075
  C    -2.876818 -1.471857  1.932532
  C    -3.078595  2.388284  1.739467
  N    -0.577312 -1.004859  1.871840
  N    -0.767845  2.605128  1.633400
  N    -2.764360 -1.544920  0.580276
  N    -2.996632  2.238409  0.428857
  N    -3.466554 -1.539057  4.396149
  N    -3.613814  2.368494  4.294634
  S    -4.300729 -1.808032  2.952802
  S    -4.359992  2.030883  2.845256
  S    -1.145753 -1.247794  0.296518
  S    -1.338073  2.380054  0.094544
  S    -1.906733 -0.948346  4.291454
  S    -1.989473  2.550603  4.188457
