16  
    
  C    -4.689741 -2.512024  1.662183
  C    -4.868447  1.234451  1.546887
  C    -5.927236 -3.124659  1.158971
  C    -6.002834  0.669269  0.815975
  N    -3.740196 -2.290631  0.748247
  N    -3.803725  1.442045  0.759914
  N    -5.965920 -3.157143 -0.166018
  N    -5.794634  0.317681 -0.455180
  N    -6.306349 -2.773995  3.686070
  N    -6.581337  0.770913  3.373656
  S    -7.241588 -3.012309  2.306311
  S    -7.243515  0.248528  1.933014
  S    -4.452636 -2.651532 -0.706770
  S    -4.243060  0.861711 -0.735955
  S    -4.777971 -2.156189  3.341014
  S    -4.995471  1.307656  3.275724
