16  
    
  C    -5.735103 -2.648023  1.470311
  C    -5.570853  0.863302  1.495016
  C    -6.898153 -3.157900  0.765063
  C    -6.747526  0.439187  0.858107
  N    -4.697256 -2.409927  0.660346
  N    -4.521077  0.922803  0.668412
  N    -6.808752 -3.239794 -0.545479
  N    -6.615092  0.267839 -0.437090
  N    -7.645982 -2.839688  3.178841
  N    -7.349839  0.803617  3.282315
  S    -8.279383 -3.297764  1.707721
  S    -8.104316  0.235890  1.906045
  S    -5.263994 -2.808762 -0.895620
  S    -5.075214  0.602017 -0.816541
  S    -5.998572 -2.614933  3.196209
  S    -5.762763  1.026890  3.159768
