16  
    
  C    -0.378069 -0.455528  2.390186
  C    -0.429374  3.662787  2.878355
  C    -1.609976 -0.868342  1.794885
  C    -1.536264  2.955560  2.226268
  N     0.572055 -0.143940  1.524676
  N     0.623017  3.717383  2.088914
  N    -1.514366 -1.177022  0.502568
  N    -1.367698  2.671148  0.942419
  N    -2.144412 -0.729650  4.313596
  N    -2.135051  3.211810  4.673015
  S    -3.001615 -1.084635  2.923556
  S    -2.915800  2.934722  3.311583
  S     0.032003 -0.703359  0.038098
  S     0.135253  3.218527  0.570034
  S    -0.490294 -0.360781  4.107239
  S    -0.586909  3.735766  4.624322
