16  
    
  C     2.048547  0.603137  3.223956
  C     2.030301  4.291783  3.088969
  C     0.771391  0.291785  2.686967
  C     0.772762  4.001105  2.497975
  N     3.014299  0.707103  2.310201
  N     3.018010  4.297569  2.216618
  N     0.750019  0.038501  1.351360
  N     0.734902  3.892191  1.198791
  N     0.410429  0.706319  5.226298
  N     0.295623  4.239594  4.948978
  S    -0.516173  0.536875  3.774836
  S    -0.602680  3.969434  3.610726
  S     2.257796  0.343159  0.860283
  S     2.331820  3.903517  0.701037
  S     2.058393  0.842407  4.944678
  S     1.820733  4.718985  4.742102
