16  
    
  C     1.330285  0.797703  3.209155
  C     1.119483  4.307678  2.987176
  C     0.060930  0.356100  2.657747
  C    -0.058130  3.970783  2.169896
  N     2.337720  0.816976  2.386888
  N     2.139636  4.816473  2.256176
  N     0.091686  0.071166  1.363264
  N     0.161050  3.793668  0.840348
  N    -0.232223  0.769483  5.167024
  N    -0.739142  3.939467  4.715216
  S    -1.168399  0.307587  3.879227
  S    -1.399090  3.605495  3.242967
  S     1.672650  0.294682  0.919461
  S     1.749414  4.321645  0.682278
  S     1.280171  1.195673  4.872105
  S     0.839323  4.363472  4.710636
