16  
    
  C    -0.046336 -0.640837  2.541022
  C    -0.076784  3.372891  2.601845
  C    -1.264831 -1.040800  1.828737
  C    -1.133896  2.571016  1.976554
  N     0.839788 -0.142272  1.700896
  N     0.915824  3.702373  1.784831
  N    -1.098848 -1.202898  0.507246
  N    -0.895893  2.259363  0.711990
  N    -1.826297 -0.971324  4.361226
  N    -1.934685  2.840020  4.375915
  S    -2.563674 -1.326996  2.897838
  S    -2.548869  2.318501  2.923625
  S     0.356556 -0.546028  0.188633
  S     0.445273  3.143235  0.256888
  S    -0.206500 -0.512653  4.317311
  S    -0.378360  3.494084  4.309739
