16  
    
  C    -4.033223 -1.766092  1.620352
  C    -3.850334  1.475707  1.706806
  C    -5.234579 -2.253324  1.041644
  C    -5.175286  1.357769  1.091840
  N    -2.944415 -1.840871  0.869779
  N    -2.867592  1.580268  0.801589
  N    -5.101126 -2.509817 -0.258076
  N    -5.069535  1.079134 -0.208419
  N    -5.779464 -1.942361  3.575915
  N    -5.681122  1.534981  3.648580
  S    -6.535239 -2.262984  2.121835
  S    -6.520793  1.372870  2.234092
  S    -3.490122 -2.320897 -0.611355
  S    -3.477502  1.293200 -0.679329
  S    -4.181840 -1.661273  3.427318
  S    -4.043412  1.691777  3.453152
