16  
    
  C    -1.769123 -1.119014  2.547251
  C    -1.830706  2.530900  2.517931
  C    -2.985869 -1.359887  1.863080
  C    -3.085952  2.218399  1.797184
  N    -0.707566 -1.014400  1.731325
  N    -0.807173  2.581001  1.679335
  N    -2.827929 -1.548107  0.530322
  N    -3.008062  2.343586  0.483879
  N    -3.558089 -1.436464  4.424176
  N    -3.646378  2.294642  4.313320
  S    -4.252757 -1.780820  2.956288
  S    -4.457956  1.981154  2.892924
  S    -1.219701 -1.267880  0.186012
  S    -1.399872  2.384371  0.133708
  S    -1.984107 -0.898107  4.304537
  S    -1.990341  2.513043  4.182211
