16  
    
  C     2.189182  1.125894  3.461339
  C     2.010626  4.970409  3.133382
  C     0.929163  0.678048  2.902186
  C     0.846119  4.548597  2.381519
  N     3.171410  1.222081  2.563816
  N     3.114927  5.195725  2.441177
  N     0.974021  0.380736  1.620600
  N     1.042675  4.431668  1.062300
  N     0.563781  0.967481  5.476375
  N     0.195474  4.411119  4.911922
  S    -0.311067  0.618932  4.110478
  S    -0.477586  4.209944  3.444982
  S     2.609640  0.675403  1.113541
  S     2.652154  4.971313  0.848722
  S     2.189866  1.150312  5.194693
  S     1.755777  5.027680  4.905447
