16  
    
  C     0.834988  0.000764  2.787302
  C     0.496114  3.508500  2.943072
  C    -0.462054 -0.259866  2.202603
  C    -0.886025  3.598708  2.395961
  N     1.824956  0.088281  1.919132
  N     1.472179  3.884220  2.125550
  N    -0.430359 -0.328191  0.864894
  N    -0.813921  3.732272  1.066371
  N    -0.824021 -0.202312  4.830212
  N    -1.172761  3.011206  4.895665
  S    -1.683176 -0.417422  3.449353
  S    -2.142232  3.188422  3.511974
  S     1.157145 -0.119985  0.402635
  S     0.769232  3.921821  0.610516
  S     0.809361  0.017728  4.583961
  S     0.444751  3.352316  4.666362
