16  
    
  C    -2.969193 -1.590416  1.983858
  C    -2.534611  2.108300  2.007985
  C    -4.091159 -2.214693  1.338284
  C    -3.786199  1.953687  1.353887
  N    -1.924319 -1.332251  1.203829
  N    -1.514160  2.154501  1.156456
  N    -3.933717 -2.254367  0.004947
  N    -3.754254  1.569710  0.062661
  N    -4.639882 -2.138391  3.794020
  N    -4.212119  2.245717  3.906158
  S    -5.418133 -2.630140  2.392033
  S    -5.099348  2.076051  2.549443
  S    -2.415586 -1.616612 -0.327584
  S    -2.117794  1.698570 -0.326149
  S    -3.086680 -1.605797  3.673620
  S    -2.595257  2.328807  3.744173
