16  
    
  C    -3.017389 -1.263475  2.138389
  C    -3.158963  1.733992  2.018491
  C    -4.243715 -1.745386  1.530402
  C    -4.375448  1.394229  1.327883
  N    -1.946724 -1.214792  1.353149
  N    -2.115253  1.955420  1.239016
  N    -4.137338 -1.895809  0.221985
  N    -4.251615  1.346644  0.018904
  N    -4.798661 -1.660177  4.047623
  N    -5.089173  1.601285  3.755637
  S    -5.539323 -1.964278  2.628737
  S    -5.784124  1.251106  2.245831
  S    -2.571950 -1.563259 -0.210612
  S    -2.672078  1.714231 -0.313058
  S    -3.235750 -1.090321  3.878317
  S    -3.427471  1.961511  3.691537
