16  
    
  C     3.281905  1.689419  3.272012
  C     3.154965  5.159878  3.431319
  C     1.982863  1.575399  2.688453
  C     1.883648  4.793725  2.812438
  N     4.268175  1.443289  2.417050
  N     4.153905  5.176459  2.559768
  N     1.978047  1.284793  1.396073
  N     1.878224  4.628437  1.519049
  N     1.605217  1.571015  5.190819
  N     1.349632  5.021464  5.242048
  S     0.667147  1.588281  3.842810
  S     0.605919  4.536312  3.864376
  S     3.587143  1.128072  1.013195
  S     3.493954  4.674641  1.116647
  S     3.162584  2.000952  4.980757
  S     2.983213  5.211087  5.146050
