16  
    
  C     2.626017  1.029253  3.132743
  C     2.514682  4.979840  3.535415
  C     1.418432  0.577707  2.461220
  C     1.394338  4.269299  2.982124
  N     3.703021  1.171975  2.365481
  N     3.491996  5.270288  2.692091
  N     1.524152  0.469429  1.147410
  N     1.510525  4.028565  1.682559
  N     0.845203  0.791085  5.033289
  N     0.829376  4.537878  5.394519
  S     0.105354  0.410888  3.520695
  S     0.053396  4.241391  4.040594
  S     3.089306  0.811586  0.783546
  S     2.986462  4.667376  1.181367
  S     2.422404  1.285561  4.831398
  S     2.327851  5.189746  5.263940
