16  
    
  C     3.252614  1.530036  3.573038
  C     3.051142  5.095447  3.376728
  C     1.996395  1.106947  3.054992
  C     1.999988  4.390521  2.720951
  N     4.275029  1.573958  2.711394
  N     4.088095  5.476769  2.654734
  N     2.134231  0.850031  1.751789
  N     2.186567  4.339289  1.400748
  N     1.613261  1.471051  5.561192
  N     1.163678  5.086004  5.097988
  S     0.726329  0.959077  4.249935
  S     0.605855  4.136742  3.841408
  S     3.697419  1.122809  1.243194
  S     3.719306  5.001435  1.045813
  S     3.154115  2.006385  5.248364
  S     2.777973  5.369397  5.120576
