16  
    
  C     1.471888  1.011245  3.315247
  C     1.451954  4.300285  3.435720
  C     0.244822  0.577800  2.771548
  C     0.140339  4.194242  2.905520
  N     2.487096  1.021631  2.454848
  N     2.360441  4.493650  2.457987
  N     0.333215  0.217468  1.467858
  N     0.055370  3.959906  1.597173
  N    -0.241036  0.808638  5.277403
  N    -0.043274  4.663586  5.413913
  S    -1.081896  0.529988  3.858682
  S    -1.016169  4.171152  4.177321
  S     1.899101  0.509691  1.020186
  S     1.620130  4.225325  1.058425
  S     1.320451  1.319368  4.975545
  S     1.519128  4.799785  5.124375
