16  
    
  C    -0.263604 -0.373787  2.403752
  C    -0.350434  3.485887  2.765666
  C    -1.462127 -0.911267  1.739706
  C    -1.549251  2.967213  2.153481
  N     0.746686 -0.247525  1.558248
  N     0.688287  3.572852  1.938703
  N    -1.345288 -1.139502  0.429924
  N    -1.518669  3.035614  0.813474
  N    -1.964109 -0.613622  4.295048
  N    -2.089987  3.214822  4.638942
  S    -2.622298 -1.217340  2.904324
  S    -2.914701  2.901636  3.281919
  S     0.221044 -0.670979  0.049632
  S     0.064341  3.227228  0.412401
  S    -0.331958 -0.167544  4.135378
  S    -0.540715  3.750056  4.480146
