16  
    
  C    -4.701754 -2.664980  1.523154
  C    -4.671116  0.805304  1.431967
  C    -6.016370 -2.909484  0.965950
  C    -5.945876  0.643618  0.735158
  N    -3.740422 -2.571856  0.635024
  N    -3.626859  0.959617  0.664189
  N    -6.026648 -3.133006 -0.350052
  N    -5.883217  0.663110 -0.598628
  N    -6.341820 -2.542208  3.481461
  N    -6.505017  0.898138  3.159650
  S    -7.231797 -3.023367  2.164798
  S    -7.276177  0.586522  1.755511
  S    -4.421265 -3.000692 -0.793774
  S    -4.210702  1.007772 -0.897768
  S    -4.734214 -2.477079  3.278375
  S    -4.908131  1.122638  3.139303
