16  
    
  C    -1.954090 -1.116709  2.194572
  C    -1.818288  2.362863  2.051926
  C    -3.229832 -1.268499  1.571301
  C    -3.009984  1.952476  1.284061
  N    -0.956065 -0.925551  1.312662
  N    -0.728460  2.326009  1.292354
  N    -3.183916 -1.449569  0.220852
  N    -2.833943  1.844099 -0.038688
  N    -3.626227 -0.943356  4.120288
  N    -3.676466  2.059363  3.782503
  S    -4.534189 -1.205420  2.745558
  S    -4.421485  1.852578  2.302623
  S    -1.564669 -1.248442 -0.155385
  S    -1.236486  2.117829 -0.304025
  S    -1.953799 -0.873188  3.838395
  S    -2.038274  2.408815  3.748794
