16  
    
  C     1.385700  0.749240  3.410521
  C     1.245523  4.471103  3.131186
  C     0.138375  0.265488  2.845842
  C    -0.054601  4.078044  2.616588
  N     2.395030  0.909012  2.554689
  N     2.253962  4.665241  2.303397
  N     0.207790 -0.068101  1.562802
  N    -0.080572  4.063043  1.276512
  N    -0.223014  0.979518  5.388111
  N    -0.341039  4.167193  5.172034
  S    -1.126844  0.505772  3.992609
  S    -1.265652  3.835549  3.855091
  S     1.761293  0.340166  1.100955
  S     1.487669  4.410215  0.783623
  S     1.427782  1.225808  5.081837
  S     1.231643  4.628037  4.876562
