16  
    
  C     1.169148  0.177075  2.940840
  C     0.718722  3.780408  3.178469
  C    -0.069028 -0.398733  2.447625
  C    -0.507720  3.374029  2.519493
  N     2.118960  0.330349  2.023605
  N     1.734205  4.087232  2.400552
  N     0.020560 -0.841282  1.162338
  N    -0.350077  3.353750  1.199891
  N    -0.481009  0.193147  4.930164
  N    -1.002612  3.238598  5.030301
  S    -1.286494 -0.493137  3.658970
  S    -1.856837  3.001713  3.550519
  S     1.544962 -0.354171  0.600630
  S     1.243021  3.747456  0.869851
  S     1.059327  0.590504  4.693751
  S     0.562333  3.623927  4.856788
