16  
    
  C     1.790481  0.474807  3.131356
  C     2.074424  4.258969  3.337199
  C     0.564699  0.171398  2.399318
  C     0.722085  4.020565  2.721361
  N     2.819840  0.698238  2.322137
  N     3.015181  4.832058  2.518007
  N     0.682686  0.251642  1.080289
  N     0.865097  4.075842  1.376165
  N     0.012232  0.094383  4.979015
  N     0.251144  3.993118  5.169317
  S    -0.785935 -0.207544  3.435779
  S    -0.600023  3.684392  3.829238
  S     2.227868  0.626728  0.777599
  S     2.363050  4.564205  1.016730
  S     1.639817  0.574259  4.875739
  S     1.879661  4.373783  5.098203
