16  
    
  C     2.330284  0.952086  3.523040
  C     2.074131  4.910364  3.223197
  C     1.036165  0.619454  2.997280
  C     0.881871  4.617207  2.456433
  N     3.272697  1.016646  2.589654
  N     3.125516  5.252749  2.459842
  N     1.006117  0.358625  1.702644
  N     1.072286  4.482591  1.147464
  N     0.647997  0.866153  5.396624
  N     0.003438  4.599394  4.885101
  S    -0.294698  0.690474  4.078114
  S    -0.547402  4.157735  3.331177
  S     2.563919  0.648081  1.159843
  S     2.656235  4.917616  0.882744
  S     2.227608  1.142835  5.257182
  S     1.610624  5.266683  4.822040
