16  
    
  C     1.602718  0.886688  3.255085
  C     2.040058  4.455800  3.354634
  C     0.460582  0.324213  2.530180
  C     0.760459  4.089243  2.715730
  N     2.684040  1.165945  2.509253
  N     2.973416  4.751248  2.445051
  N     0.686680  0.186492  1.199604
  N     0.837160  3.811320  1.405703
  N    -0.278634  0.397246  5.005728
  N     0.247420  4.457770  5.147336
  S    -0.932871  0.018088  3.522985
  S    -0.530468  3.900812  3.807853
  S     2.236711  0.760586  0.947633
  S     2.437455  4.196332  0.904468
  S     1.274581  1.190632  4.944532
  S     1.783177  4.917797  4.989570
