16  
    
  C     3.349165  1.488911  3.466469
  C     3.198236  5.078309  3.508122
  C     2.015322  1.383201  2.871647
  C     1.944983  4.729452  2.920179
  N     4.307115  1.524381  2.558484
  N     4.208706  5.004349  2.625034
  N     1.945512  1.237771  1.534671
  N     1.962824  4.475973  1.623063
  N     1.703167  1.736277  5.433993
  N     1.419046  5.061935  5.377027
  S     0.758993  1.518230  4.102315
  S     0.552937  4.702217  3.972262
  S     3.527265  1.341188  1.064427
  S     3.538952  4.677285  1.163511
  S     3.332628  1.555924  5.243430
  S     3.047881  5.373356  5.286648
