16  
    
  C     2.282085  0.766065  3.508285
  C     1.857254  5.147063  3.110023
  C     0.996011  0.574087  2.899768
  C     0.812965  4.494233  2.368954
  N     3.324702  0.811158  2.681132
  N     3.007957  5.230811  2.456787
  N     1.064056  0.519121  1.561807
  N     1.126488  4.399113  1.066184
  N     0.612351  1.026059  5.566441
  N     0.019310  4.795666  4.762842
  S    -0.261371  0.587624  4.144515
  S    -0.529971  4.128208  3.416663
  S     2.637253  0.658565  1.165911
  S     2.699331  4.880044  0.877002
  S     2.262512  1.149437  5.222307
  S     1.564283  5.283727  4.846835
