16  
    
  C    -4.281702 -1.841837  2.020372
  C    -4.136675  1.459906  1.906165
  C    -5.468994 -2.221572  1.376854
  C    -5.459722  1.170023  1.328685
  N    -3.243535 -1.774376  1.191001
  N    -3.105547  1.481035  1.085572
  N    -5.422258 -2.507430  0.078573
  N    -5.324945  0.939035  0.043458
  N    -6.046933 -2.052155  3.980868
  N    -5.827104  1.407059  3.854558
  S    -6.785379 -2.425802  2.569706
  S    -6.707330  0.990602  2.466536
  S    -3.841431 -2.307356 -0.297221
  S    -3.815961  1.112394 -0.385656
  S    -4.428689 -1.671642  3.739876
  S    -4.216895  1.774797  3.581889
