16  
    
  C     3.017954  1.430545  3.374519
  C     3.082641  5.057623  3.366799
  C     1.798777  1.151198  2.666113
  C     1.866784  4.830943  2.597888
  N     4.064638  1.596848  2.589178
  N     4.149410  5.153067  2.575808
  N     1.916177  1.094714  1.327057
  N     2.081525  4.484118  1.304737
  N     1.257695  1.546135  5.154251
  N     1.126032  5.054735  5.084655
  S     0.390767  1.155057  3.773622
  S     0.452955  4.630861  3.606784
  S     3.496257  1.431967  0.967691
  S     3.642831  4.825214  0.966081
  S     2.918749  1.635138  5.071342
  S     2.773717  5.258449  5.102593
