16  
    
  C    -5.813865 -2.738347  1.288490
  C    -5.602693  0.805045  1.528146
  C    -7.069379 -3.000506  0.627739
  C    -6.821566  0.368838  0.841729
  N    -4.793697 -2.524880  0.475954
  N    -4.555593  0.862903  0.728469
  N    -6.884286 -3.178852 -0.689511
  N    -6.655601  0.301916 -0.486492
  N    -7.465334 -3.211058  3.161974
  N    -7.414464  0.514368  3.314662
  S    -8.350479 -3.430608  1.796807
  S    -8.214105  0.304904  1.879131
  S    -5.294334 -2.819468 -1.051253
  S    -5.060318  0.575131 -0.818542
  S    -5.971367 -2.490904  2.993400
  S    -5.879364  1.119366  3.308603
