16  
    
  C    -1.376620 -0.507424  1.913285
  C    -1.167426  3.318762  2.162021
  C    -2.545826 -1.164507  1.530189
  C    -2.457028  2.811252  1.594560
  N    -0.497422 -0.313838  0.918791
  N    -0.369334  3.758878  1.210724
  N    -2.582068 -1.522128  0.230321
  N    -2.438158  2.530808  0.301061
  N    -2.815039 -0.642711  4.045151
  N    -2.695967  2.921954  4.191654
  S    -3.823489 -1.202393  2.779238
  S    -3.627797  2.480731  2.874513
  S    -1.216164 -0.949624 -0.419210
  S    -0.936058  3.102990 -0.240876
  S    -1.292224 -0.138971  3.577061
  S    -1.113988  3.376086  3.887652
