16  
    
  C     1.540836  1.017495  3.210046
  C     1.889601  4.606309  3.323105
  C     0.343742  0.560614  2.499865
  C     0.695471  4.081331  2.730044
  N     2.608145  1.162972  2.434528
  N     2.908564  4.682656  2.471084
  N     0.478321  0.432405  1.199784
  N     0.775397  3.657291  1.496047
  N    -0.314567  0.681467  4.977570
  N     0.132197  4.552846  5.217904
  S    -0.938493  0.132360  3.631385
  S    -0.735693  4.172035  3.820167
  S     2.081027  0.755465  0.897296
  S     2.304343  4.093886  0.990994
  S     1.280598  1.240079  4.956967
  S     1.743839  4.859672  5.044478
