16  
    
  C    -1.766970 -1.027311  2.530246
  C    -1.880236  2.421856  2.477803
  C    -2.975859 -1.508651  1.818370
  C    -3.147490  2.242866  1.862839
  N    -0.730481 -0.990134  1.719719
  N    -0.804882  2.578827  1.704885
  N    -2.915404 -1.514113  0.501099
  N    -3.039584  2.195452  0.535201
  N    -3.567609 -1.338674  4.350100
  N    -3.647789  2.228603  4.345267
  S    -4.281824 -1.746108  2.935416
  S    -4.490016  1.967948  2.900732
  S    -1.304649 -1.282071  0.149546
  S    -1.392051  2.434134  0.148295
  S    -2.002044 -0.893169  4.285640
  S    -2.006769  2.500408  4.238583
