16  
    
  C    -4.776895 -2.314512  1.709582
  C    -4.813654  1.063675  1.669906
  C    -5.973177 -2.868017  1.147797
  C    -5.910398  0.375855  1.060082
  N    -3.815092 -2.164084  0.838481
  N    -3.797119  1.370308  0.890312
  N    -5.991263 -3.032935 -0.179786
  N    -5.807896  0.254700 -0.263894
  N    -6.399544 -2.658830  3.746453
  N    -6.787667  0.936072  3.513894
  S    -7.181205 -3.183723  2.351236
  S    -7.327383  0.103390  2.121000
  S    -4.416437 -2.597094 -0.667265
  S    -4.326071  0.863456 -0.638175
  S    -4.820454 -2.174273  3.492395
  S    -5.194493  1.456758  3.346943
