16  
    
  C     1.087297  0.298962  3.071955
  C     1.048436  4.138867  2.604284
  C    -0.153590  0.028506  2.367160
  C    -0.054727  3.458156  2.057333
  N     2.162311  0.287651  2.317848
  N     2.024258  4.320364  1.767926
  N     0.017498 -0.111580  1.041376
  N     0.096508  3.031568  0.814613
  N    -0.868143 -0.012008  4.843278
  N    -0.882788  4.214764  4.347948
  S    -1.569739  0.097699  3.358246
  S    -1.397627  3.310260  3.115424
  S     1.660934  0.020861  0.770643
  S     1.662807  3.477148  0.395848
  S     0.795026  0.326315  4.761501
  S     0.763845  4.721041  4.257582
