16  
    
  C    -0.518904 -0.486895  2.678832
  C    -0.302639  3.288926  2.651883
  C    -1.740129 -0.669226  1.959584
  C    -1.463403  2.620572  2.049326
  N     0.511080 -0.362576  1.811704
  N     0.736708  3.475474  1.854613
  N    -1.602476 -0.846527  0.636060
  N    -1.346163  2.416166  0.755908
  N    -2.363833 -0.606865  4.470925
  N    -2.172518  3.155541  4.430368
  S    -3.022080 -1.007844  3.003010
  S    -2.764857  2.357864  3.130530
  S    -0.062490 -0.553606  0.287933
  S     0.223274  2.756256  0.383321
  S    -0.750684 -0.058370  4.374956
  S    -0.678257  3.767669  4.347003
