16  
    
  C    -4.340737 -2.499938  1.480868
  C    -4.456659  1.640108  1.952702
  C    -5.510471 -2.886509  0.773320
  C    -5.621076  0.973609  1.349161
  N    -3.257455 -2.160395  0.760523
  N    -3.456565  1.746454  1.101765
  N    -5.314651 -2.987867 -0.511376
  N    -5.519384  0.835705  0.009003
  N    -6.269348 -2.856629  3.316839
  N    -5.975317  1.065182  3.920697
  S    -6.891728 -3.293008  1.812280
  S    -6.804079  0.625085  2.514061
  S    -3.769522 -2.431743 -0.836792
  S    -4.017882  1.267302 -0.365569
  S    -4.690485 -2.332925  3.196619
  S    -4.382171  1.763319  3.691923
