16  
    
  C     1.329329  0.742066  3.186518
  C     1.059262  4.373083  2.926024
  C     0.054632  0.349202  2.642457
  C    -0.048115  3.899362  2.148892
  N     2.391548  0.783058  2.339535
  N     2.098040  4.775324  2.238283
  N     0.104327  0.076350  1.329668
  N     0.168031  3.766522  0.852132
  N    -0.295737  0.731380  5.197814
  N    -0.727082  3.887718  4.653598
  S    -1.213695  0.276265  3.857303
  S    -1.429519  3.567802  3.171838
  S     1.697662  0.345774  0.864363
  S     1.789707  4.301321  0.626332
  S     1.283684  1.190583  4.838081
  S     0.801537  4.347526  4.695989
