16  
    
  C    -2.971065 -1.363943  2.121553
  C    -3.205793  1.841165  1.975039
  C    -4.224983 -1.672669  1.482153
  C    -4.381880  1.390868  1.231687
  N    -1.930119 -1.153481  1.290648
  N    -2.056066  1.886266  1.267677
  N    -4.102490 -1.924040  0.167042
  N    -4.187750  1.357579 -0.084686
  N    -4.741219 -1.683863  4.036264
  N    -5.073341  1.640820  3.685411
  S    -5.551708 -2.000755  2.633265
  S    -5.809629  1.233261  2.223822
  S    -2.541421 -1.561758 -0.222110
  S    -2.602545  1.669409 -0.329587
  S    -3.199806 -1.068178  3.819227
  S    -3.439487  1.989147  3.720207
