16  
    
  C    -4.891274 -2.512952  1.922426
  C    -5.207792  1.017704  1.804547
  C    -6.112506 -2.983223  1.259182
  C    -6.433213  0.569339  1.197373
  N    -3.834301 -2.352657  1.152264
  N    -4.211617  1.251233  0.944670
  N    -5.904628 -3.196071 -0.046044
  N    -6.228967  0.284850 -0.104180
  N    -6.699553 -2.584411  3.651396
  N    -7.056015  1.040960  3.557363
  S    -7.439254 -3.281414  2.308909
  S    -7.867293  0.490852  2.233582
  S    -4.344749 -2.761051 -0.394877
  S    -4.771576  0.787743 -0.526820
  S    -5.062598 -2.337140  3.634119
  S    -5.444038  1.340754  3.490442
