16  
    
  C    -2.060342 -0.990774  1.994720
  C    -2.622007  2.655766  2.088073
  C    -3.160320 -1.716976  1.460495
  C    -3.840827  2.087704  1.486890
  N    -1.055908 -0.773447  1.108727
  N    -1.646446  2.777709  1.181877
  N    -3.052108 -1.943675  0.143328
  N    -3.750100  1.814894  0.192472
  N    -3.527442 -1.883127  3.977165
  N    -4.311954  2.489413  4.007354
  S    -4.373914 -2.183453  2.573322
  S    -5.098915  1.881553  2.663053
  S    -1.632567 -1.278736 -0.379385
  S    -2.166342  2.158094 -0.216833
  S    -2.223040 -0.902858  3.765857
  S    -2.721950  2.864269  3.830461
