16  
    
  C    -1.312896 -0.923092  2.072848
  C    -1.527592  3.332832  2.007040
  C    -2.575911 -1.373064  1.459344
  C    -2.529431  2.510979  1.397068
  N    -0.441104 -0.527463  1.115513
  N    -0.571095  3.667503  1.166795
  N    -2.494801 -1.601239  0.130018
  N    -2.296358  2.213405  0.118459
  N    -2.918936 -1.067692  4.045049
  N    -3.189840  2.719303  3.875703
  S    -3.755850 -1.541562  2.681777
  S    -3.869666  2.109902  2.473808
  S    -0.996397 -1.012921 -0.348709
  S    -0.953097  3.032354 -0.319422
  S    -1.308027 -0.673704  3.788588
  S    -1.699033  3.424065  3.675866
