16  
    
  C    -4.797399 -2.274508  1.719488
  C    -4.829563  1.016894  1.694769
  C    -5.981495 -2.886672  1.141241
  C    -5.955854  0.391265  1.063159
  N    -3.819408 -2.147734  0.837438
  N    -3.806439  1.364216  0.921035
  N    -5.989571 -2.999838 -0.184854
  N    -5.842631  0.223686 -0.242541
  N    -6.404500 -2.676244  3.754130
  N    -6.780852  0.950216  3.511199
  S    -7.178026 -3.196095  2.364648
  S    -7.315695  0.103789  2.127157
  S    -4.404249 -2.604344 -0.657012
  S    -4.333280  0.862292 -0.619297
  S    -4.836029 -2.182677  3.497999
  S    -5.216858  1.470176  3.358479
