16  
    
  C     3.304284  1.498139  3.546222
  C     3.129406  5.027004  3.464192
  C     1.960685  1.436944  3.008852
  C     1.848380  4.859844  2.800032
  N     4.340498  1.405952  2.683466
  N     4.214805  5.081128  2.674607
  N     1.985696  1.341153  1.679340
  N     2.021323  4.636530  1.499674
  N     1.619404  1.364835  5.518799
  N     1.405250  5.156596  5.351007
  S     0.667751  1.366462  4.152751
  S     0.572642  4.729565  3.961398
  S     3.571417  1.320262  1.222272
  S     3.673796  4.638650  1.224567
  S     3.275210  1.659775  5.321300
  S     3.041682  5.242496  5.176883
