16  
    
  C     1.991751  1.005810  3.022853
  C     2.214798  4.383985  3.094930
  C     0.786613  0.469141  2.393923
  C     1.062409  4.111396  2.293550
  N     2.991086  1.193710  2.137295
  N     3.338456  4.311333  2.392298
  N     0.947885  0.140710  1.102819
  N     1.317153  3.746675  1.038577
  N     0.215532  1.074047  4.775100
  N     0.216820  4.479129  4.714414
  S    -0.588318  0.681918  3.452771
  S    -0.371347  3.808938  3.194461
  S     2.455672  0.619289  0.709104
  S     2.951929  4.009273  0.809404
  S     1.856761  1.314023  4.731302
  S     1.904239  4.709787  4.760242
