16  
    
  C    -2.732922 -1.582205  2.031204
  C    -2.405809  2.084692  2.075870
  C    -4.023894 -2.000111  1.509218
  C    -3.673259  1.885842  1.486204
  N    -1.761629 -1.402482  1.148090
  N    -1.354352  2.068571  1.258357
  N    -4.021880 -2.082039  0.204515
  N    -3.614571  1.804640  0.169000
  N    -4.380277 -1.906985  4.095541
  N    -4.119968  2.193942  3.981289
  S    -5.296058 -2.242973  2.694469
  S    -4.981777  1.989952  2.585359
  S    -2.522940 -1.735279 -0.343134
  S    -2.046271  1.877692 -0.266856
  S    -2.808384 -1.489520  3.826416
  S    -2.442476  2.343102  3.829773
