16  
    
  C     1.136911  0.143366  2.945984
  C     0.847061  3.804282  3.073699
  C    -0.173808 -0.397346  2.481077
  C    -0.386459  3.404382  2.517892
  N     2.014896  0.280906  1.981366
  N     1.816679  3.812798  2.202291
  N    -0.143781 -0.784244  1.195265
  N    -0.396323  3.230776  1.215801
  N    -0.339306 -0.003315  4.928142
  N    -0.837022  3.385681  5.058151
  S    -1.375038 -0.559482  3.719232
  S    -1.729151  3.236932  3.630096
  S     1.351410 -0.325278  0.612061
  S     1.149789  3.613629  0.717024
  S     1.208633  0.489977  4.637974
  S     0.768487  3.835599  4.845821
