16  
    
  C     2.349713  1.048521  3.237042
  C     2.956375  5.210398  3.975502
  C     1.234324  0.493066  2.516675
  C     1.676016  4.987766  3.341617
  N     3.466635  1.242803  2.546382
  N     3.961658  5.355355  3.113582
  N     1.449256  0.260087  1.216083
  N     1.784028  4.677447  2.053521
  N     0.527931  1.094117  5.013886
  N     1.238783  5.820110  5.674324
  S    -0.094657  0.378351  3.647638
  S     0.385419  5.078350  4.467462
  S     3.055147  0.759734  0.970335
  S     3.405804  4.850658  1.678442
  S     2.243776  1.323186  4.919737
  S     2.852183  5.918095  5.506360
