16  
    
  C    -5.394355 -2.819278  1.528972
  C    -5.535072  1.070604  1.312082
  C    -6.655967 -3.081517  0.828445
  C    -6.680811  0.529557  0.630458
  N    -4.343678 -2.689095  0.738371
  N    -4.470360  1.350923  0.564157
  N    -6.538081 -3.293626 -0.478819
  N    -6.533384  0.397741 -0.661178
  N    -7.133948 -3.105747  3.391292
  N    -7.269113  0.583393  3.181025
  S    -7.929373 -3.568032  1.957665
  S    -7.939027  0.057388  1.743885
  S    -4.898743 -2.981730 -0.830272
  S    -4.975089  0.931899 -1.005956
  S    -5.548027 -2.604615  3.253025
  S    -5.746269  1.154592  3.042114
