16  
    
  C    -3.023807 -1.754565  1.900667
  C    -3.435475  1.557436  2.117303
  C    -4.279035 -2.254002  1.348808
  C    -4.672466  1.163344  1.490487
  N    -2.104154 -1.493806  1.002493
  N    -2.351493  1.528342  1.338214
  N    -4.178592 -2.671243  0.074249
  N    -4.527384  0.940585  0.201724
  N    -4.619701 -2.069641  3.911264
  N    -5.264852  1.443851  3.867674
  S    -5.519866 -2.379462  2.553685
  S    -6.051078  1.171593  2.447520
  S    -2.704553 -2.105275 -0.492832
  S    -2.919659  1.103624 -0.152835
  S    -3.049887 -1.502328  3.678807
  S    -3.664609  1.828445  3.810559
