16  
    
  C    -4.023559 -1.737685  1.640893
  C    -3.860419  1.478570  1.691298
  C    -5.215088 -2.247629  1.028922
  C    -5.154541  1.346583  1.096754
  N    -2.928635 -1.817226  0.870002
  N    -2.838516  1.586798  0.817247
  N    -5.086338 -2.514482 -0.266805
  N    -5.047209  1.087767 -0.199319
  N    -5.780080 -1.964068  3.561251
  N    -5.670276  1.524459  3.643420
  S    -6.536532 -2.263246  2.115654
  S    -6.519936  1.373470  2.252965
  S    -3.485301 -2.326594 -0.600789
  S    -3.476228  1.308892 -0.688739
  S    -4.191454 -1.649058  3.416467
  S    -4.034075  1.697310  3.462381
