16  
    
  C     2.908613  1.601928  3.450161
  C     2.896737  5.309794  3.230572
  C     1.720525  0.953896  2.932565
  C     1.795107  4.460353  2.738895
  N     3.879920  1.768960  2.559222
  N     3.847702  5.554651  2.291336
  N     1.823335  0.634715  1.642674
  N     1.811842  4.345041  1.407450
  N     1.163808  1.359167  5.423152
  N     1.339810  4.634514  5.214582
  S     0.489981  0.632494  4.066366
  S     0.510215  4.173346  3.871191
  S     3.286058  1.134373  1.098083
  S     3.252245  4.864079  0.861175
  S     2.722204  1.950014  5.185164
  S     2.768326  5.509864  4.975475
