16  
    
  C    -2.724770 -1.496257  1.984944
  C    -3.160761  1.886253  1.850490
  C    -3.964001 -1.991259  1.396262
  C    -4.243397  1.409556  1.054850
  N    -1.703475 -1.444806  1.119627
  N    -2.100594  2.165154  1.104942
  N    -3.921728 -2.104781  0.056716
  N    -4.012930  1.121358 -0.218256
  N    -4.498882 -1.689946  3.885070
  N    -5.141645  1.647835  3.499797
  S    -5.353043 -1.910649  2.492257
  S    -5.714935  1.151426  1.987123
  S    -2.367252 -1.843507 -0.413174
  S    -2.481313  1.735866 -0.484410
  S    -2.849926 -1.346935  3.735426
  S    -3.519853  2.149578  3.525236
