16  
    
  C     1.991744  1.084887  2.990048
  C     2.279013  4.332929  3.051404
  C     0.808863  0.537016  2.392508
  C     1.035668  4.119178  2.280020
  N     2.987917  1.266495  2.144484
  N     3.416782  4.378841  2.336961
  N     0.949367  0.178209  1.105244
  N     1.347332  3.710817  1.063848
  N     0.169315  1.104882  4.866900
  N     0.206143  4.442402  4.651252
  S    -0.555288  0.629967  3.456261
  S    -0.357117  3.821696  3.233588
  S     2.443830  0.661630  0.704186
  S     2.893783  3.984636  0.824571
  S     1.859389  1.312671  4.752723
  S     1.883290  4.658219  4.760922
