16  
    
  C    -4.758725 -2.367787  1.713248
  C    -4.816600  1.109804  1.664267
  C    -5.976316 -2.849279  1.155581
  C    -5.888191  0.369845  1.059284
  N    -3.800174 -2.175847  0.827967
  N    -3.793118  1.373163  0.847084
  N    -5.978980 -3.066114 -0.167574
  N    -5.770393  0.284388 -0.278353
  N    -6.392508 -2.650806  3.727775
  N    -6.784208  0.915138  3.499158
  S    -7.187835 -3.170121  2.340215
  S    -7.335525  0.107657  2.113665
  S    -4.431820 -2.590870 -0.674328
  S    -4.314241  0.865193 -0.659069
  S    -4.807010 -2.164813  3.482030
  S    -5.170245  1.443272  3.338236
