16  
    
  C    -1.547316 -1.274905  2.136293
  C    -1.744880  2.306228  1.891509
  C    -2.852326 -1.386914  1.464284
  C    -2.976791  1.952918  1.301944
  N    -0.565186 -1.330870  1.283223
  N    -0.688589  2.464757  1.092393
  N    -2.779346 -1.533067  0.170721
  N    -2.924269  2.026393 -0.038465
  N    -3.242177 -0.976535  4.030158
  N    -3.476614  2.354178  3.764231
  S    -4.155941 -1.189159  2.634361
  S    -4.300404  1.837228  2.452003
  S    -1.163020 -1.382835 -0.204916
  S    -1.329901  2.219254 -0.442705
  S    -1.576572 -0.811999  3.795759
  S    -1.829639  2.406549  3.663761
