16  
    
  C     3.322939  1.467176  3.380412
  C     3.110746  5.056033  3.456730
  C     2.010769  1.351705  2.787839
  C     1.876071  4.503834  2.909071
  N     4.330494  1.461666  2.524199
  N     4.143143  5.068093  2.621095
  N     1.971053  1.198006  1.451209
  N     1.956958  4.388499  1.562277
  N     1.681239  1.796535  5.323373
  N     1.459533  5.001418  5.431227
  S     0.744707  1.647647  3.994579
  S     0.557932  4.676505  4.087232
  S     3.547823  1.336384  1.016974
  S     3.541965  4.735055  1.161247
  S     3.296319  1.744349  5.056721
  S     3.018675  5.350304  5.133074
