16  
    
  C    -0.158637 -0.431720  2.749751
  C     0.109367  3.416256  2.458553
  C    -1.287494 -0.915602  1.985843
  C    -1.032922  2.839284  1.735281
  N     0.947343 -0.202635  1.998033
  N     1.145729  3.551830  1.619104
  N    -1.090203 -0.959385  0.667922
  N    -0.990837  2.968123  0.404299
  N    -2.118303 -0.685510  4.329365
  N    -1.675868  2.880897  4.252923
  S    -2.685176 -1.327644  2.924347
  S    -2.335360  2.477064  2.777764
  S     0.445300 -0.488721  0.469859
  S     0.610380  3.354113  0.038909
  S    -0.499624 -0.272498  4.436554
  S    -0.062158  3.489935  4.181899
