16  
    
  C    -3.793479 -2.492708  1.657485
  C    -3.386280  1.818955  1.587649
  C    -5.087562 -2.466415  0.974771
  C    -4.533286  1.172019  0.962845
  N    -2.714224 -2.256486  0.876723
  N    -2.342001  1.843438  0.789011
  N    -4.997395 -2.496213 -0.356476
  N    -4.435956  0.896860 -0.341452
  N    -5.501764 -2.888730  3.479551
  N    -5.089506  1.446487  3.562505
  S    -6.340047 -2.711854  2.068730
  S    -5.859390  0.864397  2.179161
  S    -3.379000 -2.247115 -0.660559
  S    -2.848554  1.254967 -0.756734
  S    -3.867780 -2.626234  3.382720
  S    -3.571911  2.133463  3.320008
