16  
    
  C    -0.198785 -0.372004  2.768400
  C     0.161766  3.470033  2.327029
  C    -1.361748 -0.651707  1.995732
  C    -1.110078  3.135643  1.620288
  N     0.853772 -0.072574  2.042122
  N     1.152851  3.748979  1.496656
  N    -1.134553 -0.944075  0.723258
  N    -0.972103  3.017957  0.298501
  N    -2.063132 -0.625598  4.478588
  N    -1.461411  2.938337  4.264509
  S    -2.763821 -0.898527  2.970822
  S    -2.377006  2.885136  2.819311
  S     0.476570 -0.518346  0.450572
  S     0.569856  3.492097 -0.058920
  S    -0.464184 -0.276564  4.469137
  S     0.129886  3.403148  4.050369
