16  
    
  C    -2.887198 -1.871303  1.986647
  C    -2.780939  2.339834  1.973473
  C    -4.026665 -2.319666  1.230026
  C    -4.042926  2.143182  1.185915
  N    -1.776486 -1.701448  1.278428
  N    -1.693392  2.470818  1.224553
  N    -3.819608 -2.290586 -0.091176
  N    -3.801987  1.963915 -0.108431
  N    -4.743284 -2.111660  3.713919
  N    -4.587717  1.886289  3.722494
  S    -5.454711 -2.434304  2.250610
  S    -5.377529  1.618058  2.299453
  S    -2.202030 -1.902600 -0.289789
  S    -2.199849  2.117944 -0.356387
  S    -3.147137 -1.686648  3.689863
  S    -3.017296  2.401666  3.673048
