16  
    
  C     2.234726  1.307078  3.422800
  C     2.283713  4.804709  3.283917
  C     1.080492  0.817135  2.741427
  C     1.082339  4.373626  2.632984
  N     3.253651  1.635328  2.590234
  N     3.306006  4.947272  2.453945
  N     1.233122  0.692983  1.433736
  N     1.148016  4.349721  1.309320
  N     0.467357  0.679152  5.298014
  N     0.654509  4.255812  5.102699
  S    -0.251372  0.487950  3.765769
  S    -0.134243  3.844609  3.742987
  S     2.775933  1.182931  1.089431
  S     2.690042  4.807072  0.930171
  S     2.118886  1.010999  5.129915
  S     2.173508  4.709954  5.013141
