16  
    
  C    -4.131623 -2.062693  1.795557
  C    -4.144226  1.292869  1.794650
  C    -5.487820 -2.207292  1.328295
  C    -5.365559  1.249253  1.044407
  N    -3.173694 -2.112881  0.886171
  N    -3.062130  1.260890  1.046197
  N    -5.546767 -2.405065  0.025838
  N    -5.268839  1.139051 -0.257784
  N    -5.681059 -2.137486  3.911924
  N    -6.025221  1.522618  3.479193
  S    -6.690780 -2.283545  2.593351
  S    -6.826523  1.275523  1.987379
  S    -3.965284 -2.450838 -0.556537
  S    -3.620371  1.156029 -0.557913
  S    -4.043688 -1.988987  3.524238
  S    -4.323822  1.616546  3.446092
