16  
    
  C    -4.705671 -2.665376  1.518318
  C    -4.690651  0.831851  1.435620
  C    -6.016110 -2.886488  0.979580
  C    -5.946155  0.634423  0.735619
  N    -3.734099 -2.552031  0.630575
  N    -3.635367  0.951568  0.661403
  N    -6.014317 -3.136445 -0.332596
  N    -5.885969  0.661747 -0.595228
  N    -6.340183 -2.542616  3.486268
  N    -6.506607  0.906344  3.176141
  S    -7.231796 -3.026722  2.165272
  S    -7.267756  0.574014  1.750294
  S    -4.426259 -3.004519 -0.786077
  S    -4.207765  1.007484 -0.904114
  S    -4.733201 -2.474773  3.274417
  S    -4.912340  1.125621  3.146110
