16  
    
  C     0.773758 -0.171182  2.799219
  C     0.418022  3.456188  2.953592
  C    -0.531164 -0.329113  2.224221
  C    -0.834253  3.518550  2.295831
  N     1.736797 -0.162074  1.922968
  N     1.431473  3.673617  2.134419
  N    -0.564009 -0.222363  0.909871
  N    -0.799059  3.534364  0.946233
  N    -0.849516 -0.306751  4.718286
  N    -1.285203  3.083040  4.843440
  S    -1.782451 -0.635955  3.360436
  S    -2.149871  2.964014  3.352876
  S     1.005915 -0.120970  0.449462
  S     0.761958  3.927669  0.625456
  S     0.793220 -0.058670  4.515594
  S     0.317988  3.393596  4.704286
