16  
    
  C    -1.516327 -1.130705  2.638899
  C    -1.574066  2.700238  2.396169
  C    -2.587977 -1.605873  1.826969
  C    -2.713178  2.221922  1.688223
  N    -0.394979 -0.949450  2.007844
  N    -0.487275  2.781981  1.634201
  N    -2.311482 -1.609509  0.550693
  N    -2.512231  1.950332  0.397406
  N    -3.424394 -1.590372  4.287797
  N    -3.526331  2.493177  4.103093
  S    -4.006767 -1.945695  2.800454
  S    -4.166022  1.976238  2.647539
  S    -0.690218 -1.192091  0.413427
  S    -0.921150  2.202085  0.125379
  S    -1.845711 -1.135905  4.407183
  S    -1.914220  2.919573  4.057494
