16  
    
  C    -3.955225 -1.890377  1.776299
  C    -3.705139  1.862818  1.858803
  C    -5.119146 -2.368309  1.103927
  C    -4.906049  1.366820  1.199044
  N    -2.955736 -1.699042  0.950152
  N    -2.711539  2.101706  1.038661
  N    -5.042092 -2.547160 -0.231662
  N    -4.907754  1.367831 -0.134243
  N    -5.799623 -1.925477  3.449437
  N    -5.363165  1.501946  3.677291
  S    -6.457311 -2.757639  2.156527
  S    -6.176464  1.136352  2.294935
  S    -3.473559 -2.089891 -0.589105
  S    -3.346116  1.838107 -0.517390
  S    -4.173903 -1.632303  3.443798
  S    -3.754234  1.880598  3.569629
