16  
    
  C    -4.703256 -2.658707  1.542214
  C    -4.647213  0.760920  1.430849
  C    -6.012719 -2.960982  0.941325
  C    -5.934052  0.660035  0.727687
  N    -3.746885 -2.615392  0.642285
  N    -3.606498  0.979525  0.660402
  N    -6.045782 -3.126413 -0.381207
  N    -5.861580  0.671430 -0.601770
  N    -6.352670 -2.544939  3.476489
  N    -6.510494  0.880123  3.138793
  S    -7.235683 -3.015619  2.163783
  S    -7.298525  0.609868  1.767729
  S    -4.412021 -2.989198 -0.813359
  S    -4.218466  1.004793 -0.885925
  S    -4.732162 -2.480039  3.283029
  S    -4.895212  1.115743  3.124695
