16  
    
  C     1.907071  0.528120  3.149894
  C     1.933233  4.148184  3.167152
  C     0.571610  0.330543  2.598019
  C     0.606105  3.922013  2.590159
  N     2.866170  0.504314  2.223121
  N     2.928056  4.362332  2.286581
  N     0.561445  0.245638  1.230780
  N     0.664909  3.901220  1.280795
  N     0.376612  0.465722  5.118489
  N     0.142762  4.264001  5.183803
  S    -0.627761  0.125799  3.806581
  S    -0.768194  4.055201  3.716047
  S     2.109280  0.356532  0.765561
  S     2.179551  4.083617  0.840285
  S     1.953679  0.789595  4.864053
  S     1.807859  4.218479  4.934163
