16  
    
  C    -4.675741 -2.445918  1.556060
  C    -4.706920  1.012652  1.429378
  C    -5.969177 -2.909838  1.058023
  C    -5.940795  0.714036  0.732658
  N    -3.715968 -2.484775  0.662543
  N    -3.646956  1.089131  0.626434
  N    -5.992750 -3.185683 -0.241053
  N    -5.763313  0.660929 -0.609451
  N    -6.364988 -2.619231  3.568553
  N    -6.629203  0.897336  3.272816
  S    -7.274602 -3.027619  2.208529
  S    -7.310935  0.423658  1.827990
  S    -4.430199 -2.955676 -0.777615
  S    -4.215782  0.930873 -0.924756
  S    -4.694655 -2.409365  3.266977
  S    -4.911364  1.161941  3.186123
