16  
    
  C    -2.735206 -1.842892  2.012445
  C    -2.918329  2.377160  1.909741
  C    -3.936526 -2.173936  1.317003
  C    -4.051420  1.949557  1.156214
  N    -1.643524 -1.892386  1.236528
  N    -1.869839  2.646433  1.142619
  N    -3.810873 -2.218254 -0.002540
  N    -3.883251  1.760162 -0.165877
  N    -4.677780 -1.922976  3.738094
  N    -4.735446  1.843045  3.652677
  S    -5.411322 -2.304020  2.246686
  S    -5.401931  1.486207  2.143924
  S    -2.171966 -2.025261 -0.331765
  S    -2.312985  2.213231 -0.409159
  S    -3.034423 -1.725388  3.707268
  S    -3.126814  2.336719  3.629005
