16  
    
  C     2.581004  0.951496  3.103368
  C     2.464378  4.947893  3.497831
  C     1.390465  0.544261  2.429729
  C     1.329135  4.395238  2.833257
  N     3.583779  1.189833  2.280406
  N     3.502190  5.209773  2.704003
  N     1.548406  0.369391  1.105720
  N     1.509269  4.219624  1.500124
  N     0.897644  0.652627  4.949085
  N     0.751351  4.479234  5.491143
  S     0.063933  0.460283  3.608396
  S    -0.008124  4.119669  3.979027
  S     3.139885  0.907876  0.781478
  S     3.091865  4.647458  1.216040
  S     2.436565  1.221150  4.810494
  S     2.285045  5.145267  5.217795
