16  
    
  C    -4.892304 -2.520797  1.928623
  C    -5.205179  1.017835  1.804838
  C    -6.120448 -2.971918  1.253018
  C    -6.432934  0.558557  1.191782
  N    -3.838067 -2.356689  1.155567
  N    -4.210337  1.247223  0.947328
  N    -5.911851 -3.203000 -0.045426
  N    -6.237542  0.292171 -0.111050
  N    -6.698233 -2.574768  3.648481
  N    -7.055031  1.042634  3.558693
  S    -7.439795 -3.280539  2.307000
  S    -7.872552  0.496661  2.236725
  S    -4.345258 -2.766273 -0.391171
  S    -4.776487  0.790170 -0.529256
  S    -5.062859 -2.338002  3.636588
  S    -5.451693  1.339123  3.487534
