16  
    
  C    -2.981669 -1.586902  1.994383
  C    -2.546969  2.038517  2.048684
  C    -4.051716 -2.228622  1.240973
  C    -3.838838  1.825802  1.393900
  N    -1.952141 -1.343660  1.204889
  N    -1.549898  2.161333  1.186128
  N    -3.894449 -2.280705 -0.074102
  N    -3.768371  1.661225  0.070675
  N    -4.754967 -2.248144  3.770442
  N    -4.393755  2.094397  3.861860
  S    -5.406368 -2.577773  2.281784
  S    -5.227845  1.993282  2.412669
  S    -2.283634 -1.809203 -0.347013
  S    -2.171477  2.014881 -0.328163
  S    -3.201148 -1.678491  3.732735
  S    -2.756289  2.410194  3.696912
