16  
    
  C    -0.748643 -0.891817  2.500450
  C    -0.975869  3.067479  2.486221
  C    -1.992105 -1.253829  1.730265
  C    -2.190934  2.896107  1.817061
  N     0.234932 -0.619114  1.708088
  N     0.078590  3.034158  1.665896
  N    -1.896433 -1.294404  0.414780
  N    -2.113137  2.626043  0.509605
  N    -2.624760 -1.134293  4.241301
  N    -2.816138  3.203290  4.333351
  S    -3.308837 -1.572272  2.771384
  S    -3.610209  2.793628  2.884137
  S    -0.304756 -0.778909  0.116857
  S    -0.513505  2.740928  0.153769
  S    -1.101036 -0.531143  4.210694
  S    -1.130794  3.391163  4.152550
