16  
    
  C    -0.348485 -0.390006  2.580502
  C    -0.362340  3.269550  2.579829
  C    -1.494036 -0.734724  1.854028
  C    -1.621050  2.778653  1.937333
  N     0.729135 -0.072780  1.825349
  N     0.626482  3.335793  1.741492
  N    -1.218714 -1.003094  0.578027
  N    -1.524698  2.559703  0.627120
  N    -2.242879 -0.569878  4.336216
  N    -2.066165  3.226060  4.442503
  S    -2.968927 -1.003114  2.877615
  S    -2.888648  2.670375  3.150299
  S     0.302237 -0.501515  0.292348
  S     0.064812  2.963358  0.222374
  S    -0.616741 -0.071413  4.255916
  S    -0.474582  3.606492  4.281478
