16  
    
  C    -3.426163 -2.268011  1.923198
  C    -3.817627  2.012487  1.938635
  C    -4.554689 -2.845156  1.235123
  C    -4.658651  1.025897  1.308178
  N    -2.424772 -1.989589  1.071506
  N    -2.791210  2.334015  1.153163
  N    -4.232734 -3.327738  0.034601
  N    -4.404227  0.772837  0.017326
  N    -5.276793 -2.474039  3.702362
  N    -5.451559  1.336624  3.669128
  S    -5.940575 -3.016418  2.274120
  S    -5.995439  0.484891  2.331622
  S    -2.721076 -2.741605 -0.355478
  S    -3.038401  1.656566 -0.324205
  S    -3.754668 -1.900650  3.584812
  S    -4.193906  2.449617  3.568880
