16  
    
  C     2.064659  0.810386  3.111969
  C     2.156080  4.425075  3.021351
  C     0.793984  0.646705  2.513929
  C     0.954741  3.974341  2.385460
  N     3.116741  0.579116  2.306081
  N     3.145108  4.707852  2.219205
  N     0.808862  0.374950  1.213224
  N     1.111854  3.597143  1.141231
  N     0.361543  1.085757  4.949447
  N     0.236217  4.475503  4.835900
  S    -0.510617  0.565556  3.608529
  S    -0.428092  3.964445  3.373960
  S     2.442655  0.218791  0.814644
  S     2.734575  4.010447  0.727955
  S     1.948862  1.084099  4.801119
  S     1.895059  4.787472  4.698860
