16  
    
  C    -5.334841 -2.440381  1.432485
  C    -5.377863  1.143793  1.305171
  C    -6.537827 -3.006021  0.867649
  C    -6.550401  0.568784  0.661324
  N    -4.364171 -2.142783  0.541776
  N    -4.323844  1.458959  0.523853
  N    -6.564096 -2.919569 -0.453573
  N    -6.434550  0.410180 -0.655120
  N    -7.109102 -2.654990  3.371681
  N    -7.149375  0.888125  3.191875
  S    -7.921491 -3.056567  1.947649
  S    -7.819620  0.110202  1.775261
  S    -5.063042 -2.419746 -0.954377
  S    -4.876775  0.976641 -1.029034
  S    -5.489142 -2.185217  3.167483
  S    -5.496161  1.241285  3.066720
