16  
    
  C    -1.967901 -1.092773  2.298696
  C    -2.283416  2.566041  1.916896
  C    -3.210191 -1.434377  1.632288
  C    -3.570021  2.026811  1.413100
  N    -1.009622 -0.740472  1.453722
  N    -1.266684  2.534465  1.061926
  N    -3.094885 -1.735034  0.348875
  N    -3.512004  1.780138  0.111863
  N    -3.889422 -1.085636  4.056304
  N    -3.939627  2.386930  3.936221
  S    -4.618105 -1.502594  2.571695
  S    -4.799759  2.009301  2.557788
  S    -1.562147 -1.282783 -0.051953
  S    -1.976507  2.087685 -0.416295
  S    -2.247674 -0.794100  4.001845
  S    -2.319750  2.750592  3.657122
