16  
    
  C    -1.725029 -0.909078  2.115288
  C    -1.741471  2.333124  1.990973
  C    -3.022926 -1.285787  1.534131
  C    -2.914415  2.016471  1.270438
  N    -0.770178 -0.980420  1.229442
  N    -0.681482  2.521140  1.222714
  N    -3.037682 -1.552541  0.243629
  N    -2.791034  1.823478 -0.029545
  N    -3.465320 -1.036308  4.056154
  N    -3.587945  1.984141  3.748692
  S    -4.326684 -1.180204  2.655521
  S    -4.400224  1.953054  2.321762
  S    -1.472697 -1.370248 -0.271400
  S    -1.189549  2.108100 -0.357865
  S    -1.798597 -0.978367  3.876635
  S    -1.998641  2.373248  3.675769
