16  
    
  C    -3.135240 -1.700782  1.817476
  C    -3.551037  1.570396  2.081401
  C    -4.311752 -2.403694  1.308338
  C    -4.755309  1.154712  1.341543
  N    -2.066924 -1.611378  1.006188
  N    -2.423444  1.733747  1.391790
  N    -4.246452 -2.641928  0.018482
  N    -4.438972  0.759824  0.107591
  N    -4.741019 -2.037246  3.811547
  N    -5.482959  1.419057  3.894521
  S    -5.553279 -2.631540  2.482861
  S    -6.122715  1.035478  2.379859
  S    -2.707507 -2.226417 -0.431182
  S    -2.825995  1.191945 -0.175205
  S    -3.219344 -1.468803  3.520720
  S    -3.862761  1.923599  3.786843
