16  
    
  C    -0.020805 -0.678609  2.556986
  C    -0.323233  3.246529  2.614912
  C    -1.196966 -1.250879  2.074238
  C    -1.551734  2.582726  2.050473
  N     0.967417 -0.530687  1.688597
  N     0.679155  3.383261  1.741872
  N    -1.156137 -1.522799  0.782012
  N    -1.491099  2.460493  0.726169
  N    -1.723360 -0.678388  4.496953
  N    -1.947266  2.904391  4.633177
  S    -2.587498 -1.138460  3.150903
  S    -2.779346  2.492790  3.255542
  S     0.338902 -1.038104  0.188909
  S     0.029573  2.951354  0.247392
  S    -0.143083 -0.364765  4.244589
  S    -0.284517  3.293045  4.353347
