16  
    
  C    -0.877481 -0.726106  2.301371
  C    -0.718201  2.993787  2.409023
  C    -1.983957 -1.535638  1.749774
  C    -1.971144  2.642875  1.864118
  N     0.199268 -0.596214  1.493348
  N     0.249614  3.319402  1.542860
  N    -1.672268 -1.842047  0.469442
  N    -1.928368  2.427538  0.551222
  N    -2.761226 -0.970314  4.080029
  N    -2.425543  2.734308  4.379611
  S    -3.431259 -1.482989  2.636550
  S    -3.250884  2.548686  2.966592
  S    -0.255424 -1.260513  0.045246
  S    -0.380728  2.791492  0.064651
  S    -1.195692 -0.376483  3.974191
  S    -0.845871  3.236827  4.194820
