16  
    
  C    -5.898543 -3.104273  1.400894
  C    -6.002972  0.920041  1.320914
  C    -7.096672 -3.370771  0.607364
  C    -7.266654  0.509817  0.634614
  N    -4.789192 -2.926231  0.685683
  N    -4.919289  1.099440  0.531378
  N    -6.773672 -3.492563 -0.675133
  N    -7.125582  0.508050 -0.680535
  N    -7.686426 -3.305317  3.116008
  N    -7.755421  0.266183  3.177026
  S    -8.531850 -3.451207  1.636591
  S    -8.610338  0.192771  1.770069
  S    -5.153613 -3.254311 -0.829876
  S    -5.535404  0.804567 -1.001092
  S    -6.091024 -2.932552  3.101417
  S    -6.176169  0.664834  3.080994
