16  
    
  C     2.590326  0.970545  3.108531
  C     2.454780  5.013326  3.512058
  C     1.393613  0.555196  2.420132
  C     1.388770  4.263213  2.914248
  N     3.641341  1.179567  2.338252
  N     3.472540  5.221662  2.679029
  N     1.547131  0.399386  1.093719
  N     1.508585  4.166656  1.597969
  N     0.889520  0.707692  4.987100
  N     0.775962  4.495506  5.472172
  S     0.109647  0.447657  3.575809
  S     0.039568  4.194882  4.008616
  S     3.103281  0.862824  0.782440
  S     3.051007  4.652672  1.197914
  S     2.420281  1.255466  4.819064
  S     2.293442  5.157881  5.227565
