16  
    
  C    -1.751731 -1.142536  2.489026
  C    -1.926656  2.414385  2.564189
  C    -3.033618 -1.438964  1.850318
  C    -3.081942  2.016805  1.865964
  N    -0.807806 -0.889935  1.608172
  N    -0.865769  2.604404  1.778743
  N    -2.926546 -1.646320  0.568497
  N    -2.979863  1.992569  0.515748
  N    -3.609255 -1.190501  4.304464
  N    -3.697569  2.125476  4.389972
  S    -4.428268 -1.688652  2.878697
  S    -4.456166  1.981949  2.943079
  S    -1.396731 -1.250831  0.132545
  S    -1.435518  2.473647  0.215014
  S    -1.942379 -0.883158  4.143418
  S    -2.074048  2.445606  4.307224
