16  
    
  C    -1.632836 -1.228697  2.685728
  C    -1.760446  2.585435  2.374625
  C    -2.784211 -1.518451  1.934239
  C    -2.989564  2.150068  1.737816
  N    -0.603463 -0.872262  1.903112
  N    -0.667283  2.618465  1.604372
  N    -2.627090 -1.650303  0.599019
  N    -2.820463  2.083127  0.433815
  N    -3.479637 -1.565195  4.411144
  N    -3.588980  2.346864  4.231730
  S    -4.166667 -1.770503  2.912418
  S    -4.387572  2.139157  2.783370
  S    -1.030255 -1.212320  0.361363
  S    -1.267108  2.388290  0.067130
  S    -1.873653 -1.067860  4.394111
  S    -1.932312  2.644493  4.164616
