16  
    
  C    -3.208322 -2.156050  1.938978
  C    -3.779823  1.895951  1.974197
  C    -4.414791 -2.594451  1.296670
  C    -4.712318  1.042405  1.347795
  N    -2.203467 -1.962109  1.095682
  N    -2.728176  2.201286  1.220057
  N    -4.256664 -2.865246 -0.004678
  N    -4.367175  0.771566  0.101471
  N    -5.085851 -2.226754  3.696599
  N    -5.610681  1.493121  3.649750
  S    -5.753305 -2.884179  2.344341
  S    -6.057630  0.612622  2.263641
  S    -2.716351 -2.480112 -0.401884
  S    -2.960016  1.576737 -0.236615
  S    -3.588676 -1.560159  3.489227
  S    -4.105750  2.209763  3.677955
