16  
    
  C    -4.148595 -2.075656  1.863085
  C    -4.134515  1.391120  1.777785
  C    -5.472798 -2.146623  1.332215
  C    -5.424968  1.180082  1.073387
  N    -3.197898 -2.039730  0.916774
  N    -3.027188  1.263269  1.035373
  N    -5.567884 -2.462222  0.024902
  N    -5.208637  1.165238 -0.248903
  N    -5.653678 -2.201500  3.941826
  N    -6.080507  1.535146  3.497234
  S    -6.668300 -2.282602  2.614712
  S    -6.842640  1.269569  2.028962
  S    -4.021564 -2.459277 -0.479675
  S    -3.630407  1.154969 -0.539478
  S    -4.071270 -2.025645  3.548536
  S    -4.368011  1.573014  3.465759
