16  
    
  C    -4.231103 -2.129305  1.631186
  C    -4.223477  1.637868  1.868899
  C    -5.461995 -2.579730  1.063308
  C    -5.457556  1.145050  1.279693
  N    -3.164845 -2.244149  0.863512
  N    -3.130292  1.690276  1.072472
  N    -5.404906 -2.819473 -0.276455
  N    -5.191995  0.654325  0.046611
  N    -5.978790 -1.971236  3.527139
  N    -6.030516  1.495046  3.759368
  S    -6.745840 -2.640594  2.247940
  S    -6.771587  0.999831  2.410720
  S    -3.763656 -2.728553 -0.607909
  S    -3.651989  0.961993 -0.320946
  S    -4.354734 -1.765087  3.355232
  S    -4.559062  2.174100  3.500900
