16  
    
  C     1.674977  0.828826  3.283584
  C     2.011519  4.481946  3.292660
  C     0.634961  0.189008  2.515695
  C     0.750530  4.169434  2.625566
  N     2.758209  1.211194  2.538246
  N     3.032574  4.701810  2.474755
  N     0.904422  0.004775  1.216330
  N     0.876084  3.888554  1.301552
  N    -0.302972  0.350149  4.900336
  N     0.402420  4.172263  5.162079
  S    -0.765822 -0.254186  3.439842
  S    -0.375183  3.681675  3.818525
  S     2.381966  0.655663  1.016877
  S     2.433677  4.432482  0.931542
  S     1.349277  0.786810  4.957247
  S     1.839803  4.871567  4.987030
