16  
    
  C    -4.212893 -2.197603  2.077901
  C    -4.190010  1.373635  1.875485
  C    -5.507148 -2.530662  1.496665
  C    -5.440430  1.222040  1.243015
  N    -3.252869 -2.108090  1.146007
  N    -3.082730  1.464679  1.138525
  N    -5.588616 -2.449417  0.174939
  N    -5.334347  1.049092 -0.052994
  N    -5.813711 -2.104824  4.046720
  N    -6.003959  1.470062  3.619616
  S    -6.737770 -2.386400  2.727375
  S    -6.833441  1.185167  2.217789
  S    -3.989148 -2.169314 -0.329140
  S    -3.672655  1.192863 -0.394514
  S    -4.229156 -1.906933  3.728874
  S    -4.362543  1.526908  3.583346
