16  
    
  C     0.235915  0.069459  2.692747
  C     0.036752  3.641676  2.735858
  C    -0.955392 -0.499850  2.091101
  C    -1.014238  2.857682  2.042762
  N     1.254131  0.325257  1.875399
  N     1.105241  3.833095  1.977527
  N    -0.789490 -0.734997  0.802542
  N    -0.802151  2.805133  0.705271
  N    -1.522852 -0.306911  4.665377
  N    -1.618068  3.138209  4.556321
  S    -2.274312 -0.903555  3.284502
  S    -2.320948  2.592129  3.091487
  S     0.732103 -0.228035  0.385843
  S     0.763644  3.414676  0.420121
  S     0.015566  0.280898  4.460857
  S    -0.167785  3.840735  4.428739
