16  
    
  C     2.473774  0.988806  3.312824
  C     2.429439  4.724432  3.429546
  C     1.253874  0.766825  2.570039
  C     1.284932  4.225244  2.689319
  N     3.529287  1.312218  2.562769
  N     3.498220  5.060646  2.708589
  N     1.393784  0.951145  1.261086
  N     1.495907  4.088014  1.366224
  N     0.684642  0.642758  5.033258
  N     0.532244  4.297823  5.240437
  S    -0.105798  0.317541  3.608313
  S    -0.150289  3.941859  3.717452
  S     3.034384  1.322095  0.993964
  S     3.005938  4.804855  1.143141
  S     2.232468  1.020532  4.980267
  S     2.205315  4.854863  5.116238
