16  
    
  C    -5.721432 -2.734832  1.173514
  C    -5.801647  0.939548  1.623306
  C    -6.944091 -3.337795  0.648020
  C    -6.924376  0.405697  0.902598
  N    -4.770079 -2.504626  0.272771
  N    -4.761478  1.076807  0.802093
  N    -6.983438 -3.492708 -0.648974
  N    -6.757479  0.247113 -0.407484
  N    -7.390490 -3.189571  3.131139
  N    -7.581827  0.697240  3.308128
  S    -8.206112 -3.735653  1.737188
  S    -8.289321  0.062303  1.942733
  S    -5.530469 -2.917865 -1.229516
  S    -5.165240  0.642479 -0.738647
  S    -5.813890 -2.627708  2.967822
  S    -5.946218  1.024747  3.321248
