16  
    
  C     3.343048  1.601727  3.362576
  C     3.115709  5.104103  3.447229
  C     2.042032  1.477442  2.742650
  C     1.829319  4.768186  2.819736
  N     4.295138  1.408588  2.473024
  N     4.117876  5.138627  2.581307
  N     1.992687  1.291248  1.429102
  N     1.949951  4.443773  1.540227
  N     1.569213  1.656938  5.273371
  N     1.389158  5.022118  5.358030
  S     0.699129  1.618546  3.858978
  S     0.547864  4.562375  3.988969
  S     3.552348  1.199917  0.904188
  S     3.514644  4.691847  1.072862
  S     3.266921  1.960317  5.081600
  S     3.056269  5.273751  5.192065
