16  
    
  C    -0.097071 -0.495193  2.618083
  C     0.055448  3.522545  2.310051
  C    -1.420313 -0.598929  2.096456
  C    -1.201275  3.140596  1.712635
  N     0.876917 -0.317131  1.723386
  N     1.093803  3.655245  1.509556
  N    -1.425731 -0.660577  0.771147
  N    -1.156512  3.274909  0.377635
  N    -1.820758 -0.390852  4.516434
  N    -1.664828  3.496699  4.302837
  S    -2.737645 -0.689005  3.174945
  S    -2.476193  3.051394  2.916697
  S     0.112566 -0.361357  0.234372
  S     0.433421  3.421869 -0.013395
  S    -0.199627 -0.127152  4.261789
  S    -0.004830  3.807848  4.049269
