16  
    
  C     1.012358  0.036336  2.937662
  C     0.976043  4.129027  2.709700
  C    -0.311890 -0.175649  2.392258
  C    -0.202161  3.390710  2.345967
  N     1.972621  0.172596  2.051348
  N     1.940299  3.988019  1.753936
  N    -0.333608 -0.255559  1.066751
  N    -0.220417  2.988235  1.079355
  N    -0.599892 -0.114027  4.967483
  N    -0.727506  4.266831  4.649863
  S    -1.487783 -0.417473  3.623849
  S    -1.480275  3.400404  3.504949
  S     1.243760  0.006992  0.616473
  S     1.278173  3.244374  0.500072
  S     1.020174  0.151241  4.678159
  S     0.913920  4.580417  4.347265
