16  
    
  C     0.128237 -0.104742  2.734343
  C     0.119831  3.580765  2.678285
  C    -1.096174 -0.546162  2.108745
  C    -1.093809  3.018585  2.031217
  N     1.096715  0.208326  1.866357
  N     1.126322  3.821361  1.842553
  N    -1.046426 -0.707791  0.785615
  N    -0.905890  2.745100  0.771510
  N    -1.587144 -0.310182  4.569747
  N    -1.772594  3.330786  4.476290
  S    -2.311744 -0.926574  3.211202
  S    -2.352839  2.509703  3.091896
  S     0.459239 -0.164455  0.374538
  S     0.634013  3.253028  0.340718
  S    -0.099104  0.430599  4.374591
  S    -0.268113  3.993422  4.302450
