16  
    
  C    -2.555934 -1.297566  2.233414
  C    -2.572766  2.521671  2.353922
  C    -3.736423 -1.638911  1.543778
  C    -3.677731  1.824251  1.725882
  N    -1.580279 -0.978134  1.356228
  N    -1.653348  2.914017  1.471776
  N    -3.646690 -1.849175  0.213420
  N    -3.624234  1.778670  0.391608
  N    -4.311516 -1.762110  4.022268
  N    -4.395413  2.019681  4.203214
  S    -5.078187 -2.016954  2.535210
  S    -5.070360  1.415560  2.775297
  S    -2.105912 -1.455702 -0.148939
  S    -2.230356  2.592264 -0.036912
  S    -2.792754 -1.064193  3.966219
  S    -2.818758  2.547017  4.077153
