16  
    
  C     1.419844  0.702295  3.042482
  C     0.937280  4.212004  2.744202
  C     0.189224  0.255288  2.451658
  C    -0.087172  3.521640  1.963476
  N     2.351568  0.927377  2.150734
  N     2.005521  4.445138  1.956175
  N     0.238590  0.129478  1.148428
  N     0.100914  3.661467  0.633260
  N    -0.389479  0.647001  4.943232
  N    -0.954191  3.856039  4.398553
  S    -1.152582  0.117868  3.510064
  S    -1.473079  3.216326  2.966022
  S     1.755129  0.564766  0.677079
  S     1.664997  4.116669  0.422014
  S     1.286546  0.850118  4.754606
  S     0.655988  4.393753  4.448719
