16  
    
  C    -0.642882 -0.417094  2.674882
  C    -0.408319  3.380880  2.659765
  C    -1.907909 -0.756481  2.048096
  C    -1.370525  2.529574  2.066414
  N     0.338858 -0.212265  1.767141
  N     0.701561  3.609235  1.963518
  N    -1.745884 -1.080429  0.746995
  N    -1.084378  2.103379  0.854028
  N    -2.239869 -0.848749  4.630738
  N    -2.191691  3.078072  4.444290
  S    -3.109714 -0.999555  3.234205
  S    -2.833276  2.294575  3.130607
  S    -0.192925 -0.789908  0.343297
  S     0.372150  2.809174  0.500112
  S    -0.688615 -0.270760  4.357110
  S    -0.726320  3.727640  4.309642
