16  
    
  C     2.498088  1.219672  3.362300
  C     2.848276  5.243037  3.776883
  C     1.383425  0.647370  2.635987
  C     1.702528  4.466412  3.312641
  N     3.593608  1.390992  2.647003
  N     3.875219  5.335816  2.924543
  N     1.675209  0.347685  1.383962
  N     1.769939  4.188888  2.005783
  N     0.559740  0.859911  5.024659
  N     1.210689  4.983172  5.823172
  S    -0.125259  0.461089  3.571477
  S     0.298962  4.641329  4.474621
  S     3.277828  0.776262  1.110726
  S     3.270101  4.681378  1.456702
  S     2.161182  1.381974  5.052385
  S     2.679370  5.698681  5.472491
