16  
    
  C     3.349897  1.523501  3.557180
  C     3.151310  5.015842  3.483884
  C     2.017836  1.444000  3.010044
  C     1.856899  4.919349  2.816811
  N     4.306907  1.415053  2.617770
  N     4.218947  5.086380  2.694830
  N     1.983000  1.332371  1.683712
  N     2.001029  4.605146  1.516219
  N     1.619898  1.429654  5.544288
  N     1.386659  5.153605  5.388004
  S     0.692115  1.382765  4.138212
  S     0.592281  4.724381  3.987597
  S     3.557963  1.318027  1.196392
  S     3.668070  4.631148  1.197731
  S     3.274567  1.625486  5.295833
  S     3.015316  5.254499  5.167148
