16  
    
  C    -2.781329 -1.511346  2.001323
  C    -3.159955  1.950142  1.852865
  C    -4.041224 -1.858973  1.430995
  C    -4.322229  1.435630  1.125092
  N    -1.796088 -1.333868  1.119962
  N    -2.076929  2.096662  1.122937
  N    -3.948794 -2.157933  0.148882
  N    -4.075928  1.261405 -0.147012
  N    -4.554288 -1.689047  3.924055
  N    -5.114530  1.716144  3.435775
  S    -5.378895 -1.932172  2.504463
  S    -5.731532  1.136837  2.019495
  S    -2.420121 -1.693694 -0.378574
  S    -2.482698  1.629420 -0.389474
  S    -2.971469 -1.266560  3.733599
  S    -3.504967  2.091974  3.579667
