16  
    
  C     2.374640  0.899454  3.513081
  C     1.969525  4.885654  3.040557
  C     1.060660  0.681106  2.911052
  C     0.830657  4.342499  2.314493
  N     3.349268  0.920904  2.606440
  N     2.957142  5.264973  2.220522
  N     1.022134  0.524162  1.592575
  N     1.075514  3.908623  1.035584
  N     0.632967  0.889359  5.375542
  N     0.184737  4.386571  4.952605
  S    -0.223397  0.601455  4.052313
  S    -0.556616  4.149599  3.381878
  S     2.660793  0.607580  1.082853
  S     2.525406  4.689421  0.678929
  S     2.253622  1.037880  5.279780
  S     1.734310  5.121776  4.800530
