16  
    
  C    -5.413060 -2.813282  1.487190
  C    -5.513371  1.069420  1.317999
  C    -6.606018 -3.276318  0.831374
  C    -6.699127  0.611582  0.674947
  N    -4.332822 -2.670786  0.733394
  N    -4.505080  1.370270  0.514376
  N    -6.528571 -3.325103 -0.493628
  N    -6.458999  0.431205 -0.627378
  N    -7.128653 -3.010884  3.377434
  N    -7.320372  0.635494  3.175787
  S    -7.848457 -3.585779  1.979853
  S    -7.918723  0.032450  1.704922
  S    -4.922518 -2.937806 -0.820811
  S    -4.972227  0.960084 -0.993684
  S    -5.489966 -2.650944  3.178975
  S    -5.742771  1.123283  2.997339
