16  
    
  C     1.199618  0.324529  3.103769
  C     1.026363  4.181771  2.583798
  C     0.003341  0.074053  2.324365
  C    -0.037942  3.548197  1.942061
  N     2.309791  0.221099  2.425533
  N     2.111571  4.325113  1.855078
  N     0.234856 -0.096887  1.022783
  N     0.284302  3.164170  0.721408
  N    -0.805233  0.391191  4.742527
  N    -1.002984  3.985827  4.265553
  S    -1.406502  0.258474  3.209487
  S    -1.494574  3.200744  2.900608
  S     1.879876  0.005874  0.889713
  S     1.763153  3.736397  0.358502
  S     0.879483  0.586790  4.772088
  S     0.614368  4.440308  4.231847
