16  
    
  C    -5.866779 -2.682474  1.215634
  C    -5.669716  0.816851  1.551572
  C    -7.067325 -3.155351  0.571457
  C    -6.832428  0.425841  0.858226
  N    -4.772057 -2.559268  0.480971
  N    -4.596815  0.904323  0.756733
  N    -6.994079 -3.143337 -0.767242
  N    -6.661616  0.300018 -0.439159
  N    -7.382334 -3.296347  3.202267
  N    -7.446952  0.482115  3.339428
  S    -8.281435 -3.465267  1.822861
  S    -8.211611  0.291549  1.887063
  S    -5.331576 -2.844645 -1.093236
  S    -5.062196  0.570506 -0.802964
  S    -5.983183 -2.494968  2.902156
  S    -5.937223  1.101341  3.279912
