16  
    
  C    -1.820767 -0.873778  2.322769
  C    -1.891826  2.411610  2.579586
  C    -3.116191 -1.317204  1.830330
  C    -3.081228  2.058111  1.900089
  N    -0.831839 -0.951309  1.449684
  N    -0.829167  2.724124  1.823238
  N    -3.075493 -1.574141  0.538227
  N    -2.868887  1.859158  0.607544
  N    -3.420294 -1.236866  4.291289
  N    -3.733451  2.092043  4.389042
  S    -4.362377 -1.422525  2.959202
  S    -4.437437  1.644297  2.942883
  S    -1.532621 -1.356316  0.038037
  S    -1.295512  2.234681  0.308033
  S    -1.837716 -0.761971  4.068141
  S    -2.130250  2.494611  4.324206
