16  
    
  C    -4.821672 -2.454879  1.879150
  C    -5.109033  1.174727  1.775500
  C    -5.987801 -3.003824  1.214712
  C    -6.288398  0.625340  1.158322
  N    -3.849976 -2.197750  1.031541
  N    -4.104094  1.395049  0.927776
  N    -5.861361 -3.183795 -0.108385
  N    -6.043001  0.287990 -0.110816
  N    -6.474233 -3.067716  3.694699
  N    -6.915775  0.927740  3.589697
  S    -7.297585 -3.220991  2.300727
  S    -7.579146  0.295847  2.292420
  S    -4.390203 -2.579957 -0.519983
  S    -4.483872  0.662599 -0.479678
  S    -5.054318 -2.180062  3.610847
  S    -5.371616  1.396293  3.488003
