16  
    
  C    -5.839507 -3.026970  1.555252
  C    -6.101513  0.835852  1.384374
  C    -6.969223 -3.484045  0.796809
  C    -7.260133  0.156904  0.832935
  N    -4.702987 -3.019656  0.892662
  N    -5.227138  1.327523  0.495531
  N    -6.687618 -3.554563 -0.518982
  N    -7.296810  0.135946 -0.510975
  N    -7.685339 -3.225251  3.277344
  N    -7.585733  0.279784  3.365980
  S    -8.378450 -3.568562  1.794314
  S    -8.362951 -0.356078  2.025599
  S    -5.071187 -3.306492 -0.623696
  S    -5.919430  0.885380 -0.947403
  S    -6.054299 -2.937450  3.210422
  S    -6.103338  0.921473  3.140134
