16  
    
  C     0.014142 -0.726696  2.559867
  C    -0.336784  3.246006  2.589202
  C    -1.205251 -1.215432  2.011265
  C    -1.546381  2.582525  2.067831
  N     0.965680 -0.503777  1.695221
  N     0.700113  3.334737  1.736479
  N    -1.175636 -1.528002  0.756867
  N    -1.467803  2.454005  0.745802
  N    -1.733231 -0.682921  4.481280
  N    -1.928886  2.907733  4.624209
  S    -2.556293 -1.137690  3.141625
  S    -2.774427  2.476410  3.273367
  S     0.358219 -1.012546  0.191477
  S     0.035604  2.974934  0.252681
  S    -0.126524 -0.365376  4.224744
  S    -0.290824  3.292578  4.324457
