16  
    
  C     2.816177  1.543814  3.503781
  C     2.845048  5.294918  3.331828
  C     1.628981  0.918595  3.019752
  C     1.759780  4.546312  2.735920
  N     3.825348  1.731446  2.683876
  N     3.878357  5.553149  2.518119
  N     1.716441  0.627664  1.721686
  N     1.859884  4.525320  1.391009
  N     1.232270  1.238777  5.532250
  N     1.184695  4.832807  5.282230
  S     0.424865  0.629253  4.231421
  S     0.461607  4.283864  3.933492
  S     3.232584  1.020232  1.241718
  S     3.339812  5.115739  0.986735
  S     2.685659  1.986737  5.109456
  S     2.753278  5.445847  5.033453
