16  
    
  C    -0.167477 -0.244851  2.737657
  C     0.154269  3.378726  2.304222
  C    -1.376557 -0.635668  2.027710
  C    -1.082819  3.222683  1.662893
  N     0.938270 -0.105509  1.981396
  N     1.093676  3.807089  1.452863
  N    -1.164152 -0.865716  0.743825
  N    -1.018543  3.095111  0.313147
  N    -2.063954 -0.599951  4.477665
  N    -1.480226  3.018775  4.217926
  S    -2.779156 -0.866817  2.984486
  S    -2.357678  2.919275  2.833902
  S     0.420526 -0.533765  0.487893
  S     0.568923  3.477800 -0.069442
  S    -0.434986 -0.295837  4.412388
  S     0.127395  3.412410  4.061477
