16  
    
  C    -0.388788 -0.378304  2.623459
  C    -0.366236  3.214250  2.589932
  C    -1.591172 -0.871874  1.935068
  C    -1.611656  2.860001  1.974872
  N     0.711955 -0.235742  1.864557
  N     0.698047  3.318568  1.790836
  N    -1.420874 -0.858026  0.602895
  N    -1.426425  2.474656  0.719357
  N    -2.295034 -0.539589  4.366074
  N    -2.130691  3.230821  4.512296
  S    -3.007656 -0.983964  2.944205
  S    -2.867233  2.503167  3.137147
  S     0.192591 -0.484795  0.269089
  S     0.126401  2.903409  0.284362
  S    -0.715683 -0.067315  4.256135
  S    -0.521737  3.693720  4.261438
