16  
    
  C    -1.866116 -1.097810  2.352268
  C    -1.942451  2.486984  2.624339
  C    -3.114942 -1.438772  1.779210
  C    -3.094531  1.965711  1.945093
  N    -0.917800 -0.790378  1.465054
  N    -0.865161  2.735381  1.857726
  N    -2.994035 -1.719619  0.492205
  N    -2.873701  1.799882  0.638532
  N    -3.569898 -1.151160  4.358033
  N    -3.727160  2.093093  4.400185
  S    -4.415068 -1.474899  2.927978
  S    -4.474800  1.828943  2.927591
  S    -1.453549 -1.287371 -0.006547
  S    -1.374119  2.358148  0.304317
  S    -1.941064 -0.852712  4.104782
  S    -2.100195  2.400107  4.388253
