16  
    
  C    -4.704971 -2.258232  1.536571
  C    -4.421842  1.352883  1.907439
  C    -5.785370 -2.800324  0.741774
  C    -5.634041  0.899125  1.277029
  N    -3.681531 -1.921137  0.772401
  N    -3.516720  1.781669  1.043933
  N    -5.656825 -2.638750 -0.578516
  N    -5.529135  0.753300 -0.022507
  N    -6.409749 -2.906714  3.201661
  N    -6.096059  0.799097  3.791034
  S    -7.138689 -3.241799  1.753830
  S    -6.837756  0.254493  2.462153
  S    -4.116955 -2.124962 -0.802907
  S    -4.008482  1.366789 -0.540392
  S    -4.844786 -2.316545  3.238809
  S    -4.502385  1.195585  3.698912
