16  
    
  C    -1.969784 -1.106850  2.185114
  C    -1.818365  2.345924  2.050568
  C    -3.229266 -1.306211  1.562427
  C    -3.041841  1.957893  1.302854
  N    -0.969913 -0.942044  1.344637
  N    -0.714545  2.318481  1.296330
  N    -3.198999 -1.426824  0.226597
  N    -2.841738  1.844400 -0.020227
  N    -3.644758 -0.932344  4.129001
  N    -3.678886  2.085690  3.774761
  S    -4.545318 -1.204688  2.757962
  S    -4.425079  1.836819  2.305382
  S    -1.574581 -1.239330 -0.159172
  S    -1.251772  2.121695 -0.303836
  S    -1.980124 -0.855691  3.843964
  S    -2.046095  2.409706  3.748405
