16  
    
  C     2.372785  0.918052  3.497116
  C     1.969068  4.876062  3.020206
  C     1.061555  0.666669  2.883543
  C     0.857682  4.281270  2.309460
  N     3.357076  0.952164  2.600832
  N     2.939748  5.219009  2.214183
  N     1.043033  0.497404  1.579661
  N     1.063072  3.938127  1.009783
  N     0.648839  0.862393  5.391478
  N     0.214033  4.363447  4.938348
  S    -0.252495  0.620060  4.052477
  S    -0.563702  4.136278  3.396617
  S     2.659622  0.614334  1.073314
  S     2.527585  4.670610  0.669602
  S     2.246836  1.030783  5.270383
  S     1.755993  5.107157  4.802973
