16  
    
  C    -4.602912 -2.380311  1.523812
  C    -4.449724  1.203037  1.884532
  C    -5.818318 -2.755801  0.807228
  C    -5.589540  0.681788  1.193252
  N    -3.618163 -2.053585  0.668980
  N    -3.468902  1.522096  1.035842
  N    -5.759687 -2.750520 -0.499771
  N    -5.655302  0.745458 -0.121377
  N    -6.466411 -2.953827  3.359419
  N    -6.151743  0.660462  3.756193
  S    -7.212044 -3.123334  1.885428
  S    -6.906037  0.381893  2.232479
  S    -4.230822 -2.149183 -0.871332
  S    -4.065354  1.333396 -0.483683
  S    -4.928768 -2.302867  3.211737
  S    -4.512494  1.119503  3.598607
