16  
    
  C    -0.063392 -0.373595  2.417432
  C    -0.366792  3.411928  2.616139
  C    -1.228296 -0.991529  1.830907
  C    -1.663798  3.119342  2.050204
  N     0.985825 -0.283755  1.611003
  N     0.667365  3.376988  1.776756
  N    -1.152594 -0.943737  0.540286
  N    -1.621785  3.016120  0.720424
  N    -1.899733 -0.604863  4.262010
  N    -2.059791  3.223603  4.612794
  S    -2.573968 -1.303877  2.932004
  S    -2.909686  2.899126  3.193583
  S     0.387082 -0.608293  0.050629
  S    -0.054038  3.241162  0.250772
  S    -0.351281  0.001973  4.072680
  S    -0.407991  3.647117  4.377234
