16  
    
  C     3.544041  2.173166  3.579014
  C     3.449306  5.267013  3.508421
  C     2.442276  1.596797  2.895455
  C     2.177611  5.007147  2.931358
  N     4.625700  2.296505  2.813146
  N     4.414860  5.618405  2.652840
  N     2.711959  1.336783  1.614234
  N     2.229115  4.833781  1.611384
  N     1.827280  1.843624  5.419604
  N     1.648857  4.888205  5.505207
  S     1.151193  1.351696  3.979630
  S     0.938292  4.580354  4.033571
  S     4.297423  1.717283  1.359742
  S     3.797728  5.156308  1.136396
  S     3.447518  2.175218  5.327399
  S     3.236581  5.356552  5.328869
