16  
    
  C     1.590439  0.643881  2.810011
  C     0.885331  3.885635  2.517115
  C     0.362495  0.244387  2.181132
  C    -0.361099  3.480303  1.869668
  N     2.587319  0.831002  1.961389
  N     1.805915  4.202582  1.606269
  N     0.403114  0.177810  0.843353
  N    -0.184324  3.141606  0.602802
  N    -0.106971  0.561864  4.719369
  N    -0.836031  3.727049  4.373957
  S    -0.895295 -0.019421  3.407427
  S    -1.595143  3.152846  3.017810
  S     1.985025  0.532134  0.456282
  S     1.330600  3.652178  0.191395
  S     1.422274  0.968567  4.544465
  S     0.748799  4.183528  4.180505
