16  
    
  C     2.956056  1.566135  3.419322
  C     2.980108  5.085582  3.277430
  C     1.720419  1.317127  2.709436
  C     1.736724  4.777463  2.557514
  N     4.021633  1.579072  2.635960
  N     4.029277  5.159378  2.447197
  N     1.809209  1.221197  1.378420
  N     1.936649  4.390482  1.295195
  N     1.216715  0.966427  5.219273
  N     1.139103  4.960576  5.059580
  S     0.416456  0.867744  3.753038
  S     0.406124  4.462973  3.633263
  S     3.398261  1.393020  1.035805
  S     3.513642  4.783969  0.935291
  S     2.818938  1.605440  5.204780
  S     2.800953  5.371619  4.957591
