16  
    
  C    -4.728670 -2.607635  1.639804
  C    -4.787690  1.230126  1.485832
  C    -5.994171 -2.961750  1.033029
  C    -5.970468  0.710172  0.825212
  N    -3.815889 -2.355998  0.709777
  N    -3.724517  1.354789  0.673643
  N    -5.938705 -3.244962 -0.282060
  N    -5.821314  0.580600 -0.478948
  N    -6.305079 -2.755519  3.634379
  N    -6.523600  0.796124  3.291794
  S    -7.210850 -2.987676  2.299168
  S    -7.296138  0.319268  1.897081
  S    -4.422457 -2.794095 -0.767882
  S    -4.187082  0.844509 -0.833798
  S    -4.748976 -2.238779  3.354524
  S    -4.972064  1.205574  3.164201
