16  
    
  C     2.001718  0.886813  3.019756
  C     2.198283  4.452849  3.042015
  C     0.767978  0.455341  2.429308
  C     1.033710  3.922784  2.274126
  N     3.053958  1.007863  2.198730
  N     3.360635  4.342879  2.411445
  N     0.882507  0.142520  1.143301
  N     1.294557  3.869901  0.966668
  N     0.230301  1.011585  4.888084
  N     0.240902  4.428659  4.681928
  S    -0.615381  0.720694  3.432948
  S    -0.384916  3.868539  3.255872
  S     2.500511  0.538233  0.693419
  S     2.986592  4.020433  0.827905
  S     1.844843  1.325935  4.650151
  S     1.869918  4.774507  4.749913
