16  
    
  C     0.647935  0.220315  3.058967
  C     0.665988  3.837074  2.919901
  C    -0.611191  0.083607  2.465540
  C    -0.553376  3.604524  2.244963
  N     1.691266  0.211440  2.241908
  N     1.698301  3.950095  2.072106
  N    -0.568043 -0.027243  1.135075
  N    -0.412177  3.205653  0.943283
  N    -1.134282  0.213842  5.019533
  N    -1.058458  3.660932  4.796583
  S    -1.955169  0.130228  3.585361
  S    -1.762766  3.194595  3.442511
  S     1.036800  0.049918  0.697260
  S     1.153437  3.559115  0.607486
  S     0.516218  0.505990  4.825246
  S     0.541520  4.223057  4.639039
