16  
    
  C     2.606821  1.062541  3.156304
  C     2.451028  4.999794  3.508519
  C     1.385764  0.672874  2.472974
  C     1.321204  4.418828  2.805149
  N     3.603468  1.323827  2.327641
  N     3.560396  4.949259  2.768302
  N     1.518875  0.581667  1.153735
  N     1.493631  4.387369  1.500061
  N     0.770367  0.680663  4.963394
  N     0.633449  4.509680  5.262862
  S     0.030275  0.394408  3.524089
  S     0.002465  3.924080  3.781721
  S     3.057968  0.983930  0.825800
  S     3.077014  4.692194  1.228332
  S     2.414342  1.037043  4.879279
  S     2.200638  5.034908  5.207324
