16  
    
  C    -5.327252 -2.664716  1.360137
  C    -5.427969  1.073453  1.262139
  C    -6.517788 -3.224802  0.790121
  C    -6.550704  0.455927  0.581349
  N    -4.404815 -2.409558  0.442756
  N    -4.359496  1.436973  0.561711
  N    -6.530921 -3.417464 -0.503924
  N    -6.451553  0.426380 -0.740997
  N    -6.902594 -3.049110  3.363152
  N    -7.213933  0.487646  3.100516
  S    -7.707683 -3.506266  1.944344
  S    -7.929523  0.140231  1.652711
  S    -5.058757 -2.830839 -0.994229
  S    -4.947963  1.153115 -1.032354
  S    -5.348544 -2.574905  3.080367
  S    -5.726401  1.153522  2.964950
