16  
    
  C     1.004621  0.048990  2.964944
  C     0.988794  4.028504  2.736724
  C    -0.265405 -0.302439  2.461148
  C    -0.328411  3.492510  2.325445
  N     1.942800  0.118397  2.064292
  N     1.985172  3.923233  1.919295
  N    -0.346077 -0.346098  1.122703
  N    -0.301167  2.990611  1.121385
  N    -0.512226 -0.093949  4.999127
  N    -0.654340  4.178717  4.778704
  S    -1.501624 -0.489957  3.606902
  S    -1.550556  3.356701  3.567314
  S     1.201442 -0.026640  0.567073
  S     1.230891  3.272938  0.489341
  S     1.132005  0.190280  4.680082
  S     0.915368  4.453422  4.428845
