16  
    
  C     2.703573  1.169508  3.565119
  C     2.893818  5.066951  3.612436
  C     1.529512  0.795968  2.820572
  C     1.588224  4.867854  3.009119
  N     3.781107  1.573182  2.903605
  N     3.930174  4.827100  2.824020
  N     1.727399  0.827701  1.508785
  N     1.654453  4.825242  1.673231
  N     0.817077  0.830606  5.331306
  N     1.213149  5.429682  5.525069
  S     0.136112  0.498001  3.868301
  S     0.320939  5.184101  4.122912
  S     3.301316  1.385138  1.256567
  S     3.307724  4.916437  1.319193
  S     2.424272  1.066922  5.256733
  S     2.886270  5.266362  5.312729
