16  
    
  C     3.741664  2.093326  3.680705
  C     3.464464  5.422144  3.575584
  C     2.587001  1.581308  2.955557
  C     2.271625  4.918585  2.947280
  N     4.825468  2.392512  2.931100
  N     4.551170  5.448052  2.793295
  N     2.819529  1.294197  1.681719
  N     2.345356  4.885586  1.641273
  N     1.788892  1.979645  5.336105
  N     1.789208  4.919695  5.392927
  S     1.097599  1.472517  3.912367
  S     0.932693  4.700349  4.010859
  S     4.344613  1.807091  1.311863
  S     3.875160  5.302512  1.250791
  S     3.415849  2.221444  5.350385
  S     3.416105  5.397599  5.299781
