16  
    
  C    -2.264333 -1.051167  2.028357
  C    -2.620260  2.461766  2.272109
  C    -3.242562 -1.947078  1.466916
  C    -3.841942  1.851148  1.691029
  N    -1.301720 -0.678386  1.193471
  N    -1.707278  2.899380  1.389469
  N    -3.155841 -2.018590  0.132265
  N    -3.693263  1.654122  0.377557
  N    -3.854702 -1.648758  3.976635
  N    -4.381006  2.271480  4.116205
  S    -4.474124 -2.347910  2.606376
  S    -5.141577  1.688217  2.779827
  S    -1.781450 -1.142994 -0.324146
  S    -2.280173  2.367957 -0.112227
  S    -2.353953 -1.000641  3.811590
  S    -2.843484  2.883752  3.956329
