16  
    
  C    -1.009975 -0.696263  2.391238
  C    -0.701334  3.268909  2.731447
  C    -2.277556 -1.088229  1.724156
  C    -1.879573  2.675394  2.183278
  N    -0.023285 -0.538348  1.549968
  N     0.420678  3.236393  1.991569
  N    -2.067768 -1.382747  0.462739
  N    -1.740208  2.380019  0.886354
  N    -2.783420 -0.815323  4.263991
  N    -2.400224  3.097379  4.584198
  S    -3.557300 -1.173238  2.824261
  S    -3.242052  2.797633  3.249378
  S    -0.539124 -1.035029  0.062407
  S    -0.151286  2.678187  0.495004
  S    -1.162256 -0.422884  4.109891
  S    -0.808163  3.496535  4.507787
