16  
    
  C     1.451703  0.743153  2.924093
  C     0.897442  4.084705  2.554229
  C     0.264707  0.287168  2.249425
  C    -0.250532  3.443193  1.837053
  N     2.471623  1.033079  2.109822
  N     1.905966  4.399874  1.764981
  N     0.308446  0.252250  0.909608
  N    -0.115602  3.245078  0.512222
  N    -0.169242  0.171787  4.753224
  N    -0.899133  3.733930  4.397786
  S    -1.040924  0.065300  3.381189
  S    -1.557223  3.143029  2.935993
  S     1.881647  0.673060  0.561187
  S     1.476627  3.755367  0.232013
  S     1.384250  0.781022  4.607450
  S     0.661311  4.334972  4.244613
