16  
    
  C    -3.075798 -1.555100  2.263024
  C    -3.315817  1.922047  2.013767
  C    -4.302765 -1.896569  1.600924
  C    -4.580179  1.516241  1.448224
  N    -2.004036 -1.409701  1.474412
  N    -2.356243  2.247632  1.159390
  N    -4.141021 -2.080341  0.302133
  N    -4.511545  1.349439  0.115271
  N    -4.889091 -1.628369  4.135623
  N    -4.917173  1.468418  3.946489
  S    -5.647488 -1.755960  2.710451
  S    -5.780685  1.065684  2.595172
  S    -2.568102 -1.661514 -0.046553
  S    -3.006803  1.773313 -0.303793
  S    -3.222947 -1.485996  4.000013
  S    -3.310877  1.863265  3.712389
