16  
    
  C     2.495958  1.100342  3.311962
  C     2.975293  5.368967  3.758652
  C     1.344029  0.607477  2.580783
  C     1.666021  5.056096  3.237626
  N     3.525118  1.301624  2.496929
  N     3.967909  5.169109  2.895916
  N     1.548767  0.439451  1.280476
  N     1.621077  4.782805  1.937699
  N     0.730247  0.689425  5.065931
  N     1.319044  5.480248  5.760787
  S     0.031637  0.238468  3.618312
  S     0.396082  5.438793  4.370507
  S     3.133020  0.914390  1.020285
  S     3.194423  4.621512  1.518348
  S     2.249349  1.313872  5.034023
  S     2.974357  5.664137  5.483657
