16  
    
  C     1.467136  1.072515  3.203615
  C     1.793867  4.508919  3.346140
  C     0.256928  0.608058  2.525867
  C     0.524732  4.106299  2.802300
  N     2.494377  1.179714  2.393852
  N     2.784297  4.653406  2.450148
  N     0.438762  0.435515  1.232806
  N     0.637488  3.776357  1.541635
  N    -0.307401  0.913120  5.121078
  N     0.032776  4.555370  5.267038
  S    -1.017757  0.206428  3.647337
  S    -0.823732  4.285455  3.917134
  S     2.046772  0.768414  0.844676
  S     2.227904  4.013664  1.047678
  S     1.336234  1.239778  4.952289
  S     1.692134  4.855445  5.060966
