16  
    
  C    -0.910644 -0.823195  2.328175
  C    -0.705750  3.091959  2.489803
  C    -2.009990 -1.492263  1.625073
  C    -1.919451  2.528703  1.884103
  N     0.097199 -0.634729  1.519282
  N     0.270639  3.151085  1.559700
  N    -1.834871 -1.931177  0.406264
  N    -1.894800  2.474300  0.526729
  N    -2.752271 -0.926859  4.085622
  N    -2.411738  2.724456  4.332076
  S    -3.429771 -1.485667  2.640965
  S    -3.295165  2.491966  2.987241
  S    -0.277423 -1.268967  0.029507
  S    -0.341946  2.763037  0.082782
  S    -1.235933 -0.271226  3.950898
  S    -0.864882  3.234963  4.191546
