16  
    
  C     1.922847  0.478478  3.081191
  C     1.895186  4.234293  3.306207
  C     0.585888  0.209724  2.602362
  C     0.609939  4.013630  2.629091
  N     2.858217  0.556037  2.123729
  N     2.836912  4.255743  2.417304
  N     0.495365  0.146300  1.252085
  N     0.601362  3.853249  1.343138
  N     0.242382  0.281623  5.130757
  N     0.136287  4.104801  5.139086
  S    -0.679660  0.155413  3.768636
  S    -0.686842  4.023135  3.750349
  S     2.082042  0.408273  0.635446
  S     2.222664  4.202536  0.835732
  S     1.871129  0.750864  4.812990
  S     1.797185  4.178448  5.033341
