16  
    
  C    -0.048242 -0.541832  2.424590
  C    -0.193021  3.278682  2.629006
  C    -1.236220 -0.997134  1.818523
  C    -1.434728  2.728410  2.010573
  N     0.990884 -0.549405  1.617122
  N     0.838450  3.408742  1.799445
  N    -1.238218 -0.981908  0.495210
  N    -1.281860  2.388185  0.724168
  N    -1.686047 -0.853380  4.351898
  N    -1.953023  2.855081  4.527631
  S    -2.450617 -1.275464  2.981229
  S    -2.652622  2.237468  3.177307
  S     0.384771 -0.818753  0.063087
  S     0.219241  2.942078  0.288894
  S    -0.071670 -0.407387  4.165412
  S    -0.410693  3.473400  4.298969
