16  
    
  C     3.562772  2.083661  3.608419
  C     3.326814  5.404816  3.555742
  C     2.398946  1.584204  2.887858
  C     2.145315  4.843677  2.869084
  N     4.675447  2.255338  2.880951
  N     4.343040  5.564765  2.665815
  N     2.610420  1.322784  1.591004
  N     2.196602  4.786503  1.540166
  N     1.911585  1.625799  5.454161
  N     1.605021  4.933195  5.442098
  S     1.098511  1.289532  4.075093
  S     0.840188  4.524543  4.036609
  S     4.218328  1.695841  1.301000
  S     3.754984  5.140104  1.110450
  S     3.451436  2.171160  5.291997
  S     3.222791  5.351817  5.298028
