16  
    
  C     3.544789  1.701956  3.585980
  C     3.175678  5.196098  3.457314
  C     2.262437  1.251430  3.118972
  C     1.918840  4.711235  2.810804
  N     4.506894  1.926015  2.698817
  N     4.149571  5.481933  2.590930
  N     2.272853  1.202249  1.779633
  N     2.082339  4.433806  1.509503
  N     2.003174  1.408658  5.638912
  N     1.257352  5.061775  5.232781
  S     1.049386  0.963472  4.346998
  S     0.642057  4.305739  3.853647
  S     3.749729  1.610194  1.195321
  S     3.521708  5.036953  1.060431
  S     3.609795  1.800507  5.307059
  S     2.897174  5.484256  5.170349
