16  
    
  C     3.736898  2.100982  3.678311
  C     3.473981  5.430979  3.579962
  C     2.586842  1.596532  2.942871
  C     2.276878  4.920023  2.951592
  N     4.816541  2.402233  2.929987
  N     4.536404  5.448766  2.781974
  N     2.797043  1.285930  1.671646
  N     2.332306  4.882105  1.636287
  N     1.786645  1.983829  5.344648
  N     1.784897  4.913466  5.396545
  S     1.095641  1.458176  3.911383
  S     0.933798  4.689343  4.011602
  S     4.342107  1.796278  1.316111
  S     3.863774  5.291131  1.246591
  S     3.419944  2.216992  5.346576
  S     3.400794  5.392395  5.300653
