16  
    
  C    -1.697808 -1.026608  2.065983
  C    -1.743979  2.405671  1.976794
  C    -2.994157 -1.252851  1.526737
  C    -2.941128  1.978989  1.290464
  N    -0.713058 -0.980634  1.174665
  N    -0.660736  2.498378  1.192609
  N    -2.992332 -1.558692  0.259154
  N    -2.786105  1.826588 -0.030210
  N    -3.449128 -1.034768  4.082348
  N    -3.583660  2.020411  3.740037
  S    -4.276991 -1.179578  2.650444
  S    -4.385944  1.954021  2.317333
  S    -1.426671 -1.385206 -0.266918
  S    -1.212554  2.131124 -0.368530
  S    -1.784713 -0.968313  3.862468
  S    -1.962694  2.364734  3.675821
