16  
    
  C    -0.052265 -0.540269  2.441397
  C    -0.224690  3.314410  2.604962
  C    -1.253678 -1.010925  1.819832
  C    -1.405210  2.691441  2.017060
  N     0.984668 -0.535367  1.620325
  N     0.830292  3.421661  1.805303
  N    -1.256158 -0.982626  0.480192
  N    -1.263234  2.395030  0.720481
  N    -1.686569 -0.856695  4.337224
  N    -1.952906  2.859236  4.540361
  S    -2.457161 -1.280549  2.973360
  S    -2.656623  2.235338  3.166799
  S     0.389413 -0.802736  0.064265
  S     0.240214  2.942736  0.291796
  S    -0.060563 -0.412145  4.172421
  S    -0.406593  3.472896  4.296668
