16  
    
  C     2.061513  0.702694  3.139939
  C     2.057720  4.516015  2.914262
  C     0.789564  0.476761  2.538154
  C     0.878471  3.885136  2.388577
  N     3.100771  0.627817  2.267777
  N     3.171689  4.544335  2.188260
  N     0.844171  0.180934  1.222082
  N     1.087677  3.652380  1.100607
  N     0.329964  1.011838  5.069066
  N     0.301666  4.459764  4.852008
  S    -0.534870  0.628452  3.708349
  S    -0.526860  3.945385  3.514526
  S     2.420741  0.276635  0.802578
  S     2.611763  4.006762  0.728865
  S     2.029516  0.983862  4.887953
  S     1.904081  4.776568  4.697310
