16  
    
  C    -0.204733 -0.362143  2.653647
  C     0.201622  3.495941  2.325320
  C    -1.454111 -0.464597  1.949149
  C    -1.144841  3.352449  1.723971
  N     0.835643 -0.238299  1.846508
  N     1.185126  3.584255  1.417425
  N    -1.320742 -0.651415  0.634256
  N    -1.077816  3.190377  0.417994
  N    -1.973703 -0.430518  4.541257
  N    -1.598275  3.336442  4.240369
  S    -2.729917 -0.770384  3.114514
  S    -2.407389  3.004281  2.823219
  S     0.316715 -0.511515  0.297597
  S     0.435884  3.540803 -0.070411
  S    -0.312849 -0.248653  4.473839
  S     0.082258  3.567009  4.059945
