16  
    
  C     0.898781  0.337393  2.848472
  C     0.585619  3.481624  2.720799
  C    -0.317868 -0.136644  2.237741
  C    -0.720773  3.443940  2.081068
  N     1.876502  0.600807  2.014489
  N     1.607216  3.660785  1.898295
  N    -0.210664 -0.230067  0.923772
  N    -0.681880  3.266763  0.763780
  N    -0.817448 -0.031313  4.804832
  N    -1.128282  3.261004  4.614794
  S    -1.559296 -0.533851  3.401017
  S    -1.911663  2.909440  3.188614
  S     1.289387  0.239100  0.463853
  S     0.914379  3.656547  0.359348
  S     0.700104  0.476256  4.537868
  S     0.494120  3.555445  4.514722
