16  
    
  C     0.001013 -0.670891  2.426144
  C    -0.228418  3.250677  2.630155
  C    -1.263773 -0.937350  1.838503
  C    -1.343193  2.571459  1.964264
  N     1.002158 -0.362121  1.579477
  N     0.690887  3.683033  1.777136
  N    -1.150061 -1.101285  0.501448
  N    -1.142303  2.333470  0.662985
  N    -1.697747 -0.862239  4.372553
  N    -1.912455  2.853879  4.468879
  S    -2.568750 -1.328018  2.973345
  S    -2.644014  2.262366  3.087689
  S     0.359208 -0.660515  0.098983
  S     0.396047  2.961483  0.315298
  S    -0.095815 -0.483197  4.161747
  S    -0.381356  3.492264  4.338564
