16  
    
  C    -2.952969 -1.649921  1.972621
  C    -2.594087  2.043279  2.015603
  C    -4.054295 -2.203737  1.264103
  C    -3.856838  1.889538  1.353842
  N    -1.882587 -1.386671  1.206074
  N    -1.523749  2.182489  1.220502
  N    -3.863241 -2.315052 -0.056876
  N    -3.760600  1.732833  0.044286
  N    -4.746298 -2.241591  3.732739
  N    -4.444179  2.009872  3.798881
  S    -5.411490 -2.553908  2.230524
  S    -5.227359  1.924677  2.380000
  S    -2.287750 -1.855332 -0.339680
  S    -2.225059  2.081974 -0.332208
  S    -3.227406 -1.696666  3.758298
  S    -2.854197  2.441478  3.719432
