16  
    
  C    -5.742902 -3.069317  1.562284
  C    -6.056228  0.792677  1.368501
  C    -6.890667 -3.460612  0.829216
  C    -7.209752  0.192015  0.707695
  N    -4.659654 -2.956443  0.780376
  N    -5.129583  1.200295  0.491842
  N    -6.683995 -3.625950 -0.474241
  N    -7.218982  0.192920 -0.636353
  N    -7.801424 -3.091271  3.188658
  N    -7.657057  0.256960  3.275834
  S    -8.421651 -3.394154  1.663902
  S    -8.543332 -0.107344  1.909860
  S    -5.133348 -3.258390 -0.770630
  S    -5.800718  0.953147 -1.023657
  S    -6.184176 -3.062528  3.334319
  S    -6.132110  0.834226  3.127190
