16  
    
  C     3.017575  1.450325  3.319339
  C     3.006140  5.095637  3.270779
  C     1.730260  1.199025  2.672025
  C     1.822331  4.748029  2.570955
  N     4.111727  1.620720  2.571793
  N     4.108011  5.208582  2.536483
  N     1.884763  1.213601  1.362342
  N     2.013100  4.567321  1.282592
  N     1.181336  1.401542  5.243233
  N     1.108211  5.029696  5.090873
  S     0.390806  1.047109  3.805254
  S     0.454483  4.606862  3.641099
  S     3.499159  1.412740  1.020083
  S     3.669366  4.771141  1.003701
  S     2.857281  1.595132  5.041884
  S     2.762300  5.266115  5.011155
