16  
    
  C    -4.695391 -2.275792  1.535392
  C    -4.436418  1.331972  1.896398
  C    -5.799212 -2.800735  0.739501
  C    -5.644137  0.900727  1.259384
  N    -3.671353 -1.926370  0.771737
  N    -3.513848  1.772697  1.040931
  N    -5.658504 -2.640452 -0.563398
  N    -5.513871  0.755513 -0.032644
  N    -6.406292 -2.910188  3.208443
  N    -6.097992  0.788289  3.783440
  S    -7.140127 -3.231587  1.764046
  S    -6.837025  0.260738  2.455840
  S    -4.130098 -2.124013 -0.808026
  S    -4.011267  1.362467 -0.544509
  S    -4.856886 -2.312954  3.233918
  S    -4.506666  1.185624  3.710530
