16  
    
  C     1.323969  0.759444  3.200225
  C     1.076884  4.336202  2.944060
  C     0.056635  0.352763  2.644820
  C    -0.048002  3.934510  2.148357
  N     2.384132  0.797530  2.360844
  N     2.113049  4.801331  2.252656
  N     0.095929  0.073548  1.336711
  N     0.157950  3.769759  0.840590
  N    -0.267999  0.744051  5.188816
  N    -0.719659  3.905729  4.673539
  S    -1.199557  0.286448  3.865552
  S    -1.418744  3.581428  3.195699
  S     1.687183  0.327569  0.883533
  S     1.778643  4.306735  0.644568
  S     1.280700  1.192831  4.846134
  S     0.809713  4.352423  4.704633
