16  
    
  C    -0.805679 -0.752663  2.422580
  C    -0.844040  2.993561  2.438352
  C    -2.012972 -1.287508  1.676251
  C    -2.113184  2.755581  1.848671
  N     0.259422 -0.601749  1.668508
  N     0.165796  3.243031  1.586452
  N    -1.774791 -1.520353  0.424222
  N    -2.042437  2.595485  0.513823
  N    -2.717248 -0.860109  4.120722
  N    -2.569328  2.896663  4.423572
  S    -3.308668 -1.628125  2.777795
  S    -3.405494  2.643747  2.989808
  S    -0.174052 -1.075167  0.112926
  S    -0.443464  2.838019  0.090919
  S    -1.074268 -0.588881  4.108911
  S    -0.944224  3.368124  4.152015
