16  
    
  C    -0.616954 -0.427187  2.672791
  C    -0.397155  3.286786  2.697027
  C    -1.830911 -1.068609  2.117751
  C    -1.407179  2.522496  2.082874
  N     0.401271 -0.347144  1.776802
  N     0.587102  3.661984  1.896362
  N    -1.798258 -1.339914  0.793389
  N    -1.118311  2.191128  0.840334
  N    -2.180856 -0.871611  4.651723
  N    -2.280813  3.054142  4.493011
  S    -3.115470 -1.000123  3.290986
  S    -2.808433  2.309006  3.078257
  S    -0.227474 -0.856698  0.327114
  S     0.411096  2.817912  0.511874
  S    -0.597936 -0.352430  4.426398
  S    -0.712315  3.731057  4.369815
