16  
    
  C    -1.465823 -0.970731  2.505117
  C    -1.458962  2.635506  2.277811
  C    -2.481695 -1.589305  1.716094
  C    -2.540174  1.960115  1.536838
  N    -0.317509 -0.739588  1.806244
  N    -0.507879  3.001602  1.442663
  N    -2.188759 -1.654252  0.379640
  N    -2.270252  1.669714  0.273313
  N    -3.421725 -1.420437  4.124325
  N    -3.405906  2.467450  3.917156
  S    -4.004247 -1.906753  2.629467
  S    -3.923388  1.717428  2.528151
  S    -0.634499 -1.051362  0.205242
  S    -0.814503  2.346530 -0.042268
  S    -1.832454 -1.036567  4.166623
  S    -1.848114  3.018439  3.915658
