16  
    
  C    -3.016112 -1.842737  2.194390
  C    -3.313183  1.679507  2.047296
  C    -4.289885 -1.855039  1.540583
  C    -4.573957  1.244117  1.531282
  N    -1.959907 -1.910686  1.367814
  N    -2.399190  1.814369  1.104515
  N    -4.233387 -1.991823  0.222982
  N    -4.674736  1.273132  0.203888
  N    -4.690513 -1.963395  4.143925
  N    -4.951193  1.504479  4.027077
  S    -5.562909 -2.048980  2.709087
  S    -5.827779  1.112478  2.700837
  S    -2.594548 -1.957849 -0.178875
  S    -3.131089  1.590596 -0.326835
  S    -3.080469 -1.650418  3.902267
  S    -3.375808  1.796882  3.736766
