16  
    
  C     1.105137  0.174625  2.915785
  C     0.756893  3.853765  3.151477
  C    -0.098839 -0.420969  2.499392
  C    -0.464509  3.332139  2.493937
  N     2.058346  0.315437  1.993074
  N     1.816240  3.887142  2.300873
  N    -0.088499 -0.775619  1.245951
  N    -0.442956  3.287475  1.146019
  N    -0.387384  0.049868  4.985065
  N    -0.841894  3.332964  5.076055
  S    -1.339665 -0.546427  3.699791
  S    -1.728836  3.199450  3.610225
  S     1.394825 -0.364934  0.611381
  S     1.171288  3.640967  0.727131
  S     1.173118  0.516051  4.601415
  S     0.726177  3.746722  4.914616
