16  
    
  C     2.609133  1.010461  3.127963
  C     2.489918  5.001025  3.524539
  C     1.403844  0.564207  2.436348
  C     1.392546  4.249398  2.967818
  N     3.695235  1.176556  2.364499
  N     3.482670  5.253126  2.688483
  N     1.532932  0.448513  1.129618
  N     1.507776  4.076308  1.666096
  N     0.864325  0.765404  5.029539
  N     0.810400  4.522120  5.409880
  S     0.112482  0.423672  3.533362
  S     0.056056  4.232274  4.033478
  S     3.087990  0.825306  0.781389
  S     3.007921  4.662765  1.183172
  S     2.420309  1.277273  4.826666
  S     2.313879  5.177588  5.251951
