16  
    
  C     1.172702  0.120119  3.025008
  C     0.625310  3.714686  3.192401
  C    -0.009857 -0.304528  2.420552
  C    -0.470507  3.218382  2.370029
  N     2.217489  0.315396  2.238338
  N     1.622664  4.188349  2.489103
  N     0.085867 -0.584108  1.100381
  N    -0.283393  3.260254  1.041733
  N    -0.595886  0.110527  4.858422
  N    -1.235454  3.052223  4.836471
  S    -1.354514 -0.381785  3.502074
  S    -1.827773  2.781696  3.266672
  S     1.664023 -0.155937  0.714380
  S     1.287612  3.853626  0.848223
  S     0.939070  0.571978  4.646190
  S     0.249221  3.710586  4.932135
