16  
    
  C    -0.171221 -0.405834  2.762064
  C     0.242321  3.324906  2.374008
  C    -1.261318 -0.943906  2.021514
  C    -1.048112  3.046068  1.712334
  N     0.939743 -0.148683  2.027658
  N     1.167356  3.703519  1.518471
  N    -1.069025 -0.986601  0.688005
  N    -0.932533  2.938249  0.401995
  N    -2.144387 -0.638231  4.471003
  N    -1.501364  2.833449  4.188971
  S    -2.752224 -1.100001  2.960174
  S    -2.353799  2.690942  2.782844
  S     0.487436 -0.450561  0.466605
  S     0.583762  3.429131 -0.003920
  S    -0.539536 -0.259359  4.458657
  S     0.009994  3.433394  4.086682
