16  
    
  C    -4.184801 -2.543876  1.582605
  C    -4.275472  1.639276  1.949945
  C    -5.456318 -2.937582  0.995423
  C    -5.390991  0.966816  1.364110
  N    -3.243791 -2.312587  0.715248
  N    -3.167550  1.755667  1.233169
  N    -5.311324 -3.290962 -0.298153
  N    -5.190881  0.680561  0.097199
  N    -5.957344 -2.530413  3.487886
  N    -6.244054  1.604671  3.790296
  S    -6.760045 -2.836854  2.056945
  S    -6.832774  0.992218  2.342962
  S    -3.808282 -2.818807 -0.746972
  S    -3.593917  1.121548 -0.309923
  S    -4.330390 -2.035299  3.248728
  S    -4.639954  1.960877  3.619003
