16  
    
  C    -2.792765 -1.551316  2.029518
  C    -2.365568  1.996989  2.070510
  C    -4.063478 -2.068042  1.486681
  C    -3.661570  1.907103  1.486694
  N    -1.794899 -1.400443  1.141173
  N    -1.360766  2.015610  1.228109
  N    -4.034970 -2.057398  0.149357
  N    -3.627716  1.752511  0.179344
  N    -4.367728 -1.960026  4.084069
  N    -4.088016  2.234767  3.952771
  S    -5.289196 -2.262531  2.709701
  S    -5.000912  2.018983  2.605141
  S    -2.510892 -1.746003 -0.349440
  S    -2.036585  1.865623 -0.273094
  S    -2.814216 -1.506483  3.814939
  S    -2.440760  2.347186  3.794099
