16  
    
  C    -1.897477 -1.065467  2.386135
  C    -1.874115  2.403455  2.630589
  C    -3.096768 -1.497679  1.774676
  C    -3.111899  1.972379  1.936428
  N    -0.921083 -0.824815  1.485825
  N    -0.880451  2.775329  1.834741
  N    -2.997160 -1.742608  0.448085
  N    -2.880881  1.813924  0.646599
  N    -3.586255 -1.143116  4.340457
  N    -3.735108  2.085555  4.395951
  S    -4.402867 -1.489172  2.939919
  S    -4.494772  1.861888  2.925533
  S    -1.433454 -1.263094 -0.002521
  S    -1.386200  2.374846  0.306655
  S    -1.960098 -0.868337  4.111620
  S    -2.089979  2.402832  4.378372
