16  
    
  C    -1.472417 -1.173857  2.656381
  C    -1.588864  2.737772  2.358327
  C    -2.621154 -1.518481  1.841070
  C    -2.735441  2.134401  1.661564
  N    -0.321409 -0.951952  1.993952
  N    -0.443401  2.764655  1.628659
  N    -2.300257 -1.624939  0.543020
  N    -2.497976  1.991725  0.351599
  N    -3.413729 -1.657643  4.310235
  N    -3.516510  2.496417  4.099768
  S    -4.012291 -1.966244  2.779097
  S    -4.105150  1.938994  2.631836
  S    -0.660510 -1.191985  0.374321
  S    -0.898107  2.201041  0.149674
  S    -1.871111 -1.087602  4.382764
  S    -1.910304  2.949854  4.059976
