16  
    
  C    -2.873505 -1.618049  2.030439
  C    -2.350986  1.933592  2.063275
  C    -4.091658 -2.016759  1.419926
  C    -3.673976  1.858135  1.476607
  N    -1.935179 -1.377303  1.159071
  N    -1.332074  1.895261  1.187371
  N    -4.103666 -2.096197  0.088048
  N    -3.655335  1.678118  0.154973
  N    -4.382629 -2.042050  4.041224
  N    -4.063304  2.284813  3.982404
  S    -5.270523 -2.335080  2.710637
  S    -5.001553  2.080081  2.641560
  S    -2.477789 -1.734511 -0.330903
  S    -2.031978  1.820959 -0.302645
  S    -2.814368 -1.532903  3.750830
  S    -2.448063  2.355401  3.724071
