16  
    
  C    -4.495393 -2.412834  1.541239
  C    -4.352108  1.461286  1.913179
  C    -5.611294 -2.884798  0.700274
  C    -5.506179  0.784014  1.353885
  N    -3.543241 -1.872413  0.805427
  N    -3.451124  1.773108  0.991850
  N    -5.364361 -2.957029 -0.599269
  N    -5.535171  0.799447  0.015211
  N    -6.326862 -3.004244  3.199172
  N    -5.961321  0.869067  4.022115
  S    -7.025005 -3.261442  1.649720
  S    -6.825551  0.509953  2.607557
  S    -3.872774 -2.221042 -0.789468
  S    -4.132069  1.426418 -0.516363
  S    -4.747399 -2.375872  3.261674
  S    -4.453523  1.584104  3.688670
