16  
    
  C    -3.035320 -1.670319  2.322486
  C    -3.352668  1.975806  2.009614
  C    -4.286942 -1.814234  1.595284
  C    -4.582852  1.410768  1.484465
  N    -1.991661 -1.478291  1.489318
  N    -2.384565  2.155692  1.131154
  N    -4.207987 -2.053204  0.281055
  N    -4.618086  1.379265  0.160753
  N    -4.849164 -1.762984  4.149193
  N    -4.882446  1.377489  3.974685
  S    -5.652980 -1.777865  2.668538
  S    -5.755738  1.060199  2.644592
  S    -2.598919 -1.780913 -0.078913
  S    -3.076543  1.752020 -0.315900
  S    -3.171257 -1.572685  4.064607
  S    -3.325643  1.869042  3.711014
