16  
    
  C     0.133320 -0.074725  2.692490
  C     0.048404  3.641949  2.625086
  C    -1.118318 -0.549351  2.103576
  C    -1.000982  2.905468  2.076235
  N     1.076710  0.201627  1.786131
  N     1.078353  3.822025  1.799809
  N    -1.081237 -0.689852  0.781685
  N    -0.969544  2.802057  0.737150
  N    -1.598138 -0.340312  4.615883
  N    -1.770297  3.379425  4.441337
  S    -2.389480 -0.920137  3.248833
  S    -2.368958  2.543832  3.084456
  S     0.393312 -0.169366  0.327876
  S     0.599690  3.192863  0.321519
  S    -0.143739  0.413381  4.349745
  S    -0.289521  4.024787  4.277792
