16  
    
  C     3.251611  1.546083  3.720891
  C     3.213721  5.011403  3.435358
  C     1.963919  1.258494  3.099195
  C     2.005362  4.535249  2.815023
  N     4.311959  1.640052  2.929822
  N     4.301749  5.081309  2.670986
  N     2.096356  1.093603  1.809717
  N     2.098551  4.570687  1.476687
  N     1.381772  1.453420  5.534697
  N     1.332066  5.161684  5.228038
  S     0.578048  1.193524  4.103673
  S     0.621636  4.684092  3.833782
  S     3.655595  1.337634  1.337951
  S     3.701039  4.787963  1.087554
  S     3.018908  1.739964  5.468813
  S     2.993305  5.221383  5.196611
