16  
    
  C    -4.728811 -2.354783  1.478570
  C    -4.387492  0.985021  1.819801
  C    -5.898310 -2.847666  0.836406
  C    -5.662118  0.680116  1.202985
  N    -3.673926 -2.113948  0.684315
  N    -3.445645  1.437673  1.018707
  N    -5.784205 -2.731227 -0.501504
  N    -5.577814  0.758637 -0.092767
  N    -6.424456 -2.896420  3.327989
  N    -6.156716  0.635055  3.590978
  S    -7.241827 -3.088571  1.890392
  S    -7.005148  0.426254  2.208879
  S    -4.271051 -2.238419 -0.886223
  S    -4.105366  1.312149 -0.514571
  S    -4.865480 -2.320641  3.279929
  S    -4.554711  1.104821  3.501324
