16  
    
  C    -0.231598 -0.395889  2.409594
  C    -0.357371  3.479001  2.744372
  C    -1.469093 -0.896652  1.740590
  C    -1.552187  2.973934  2.146911
  N     0.767439 -0.242725  1.558323
  N     0.687480  3.552795  1.925924
  N    -1.350803 -1.142715  0.426770
  N    -1.525603  3.044801  0.818613
  N    -1.960817 -0.609755  4.294352
  N    -2.081613  3.221313  4.626364
  S    -2.610579 -1.227819  2.899358
  S    -2.905356  2.901274  3.279157
  S     0.232725 -0.666703  0.050358
  S     0.057280  3.229574  0.402109
  S    -0.326622 -0.151544  4.138916
  S    -0.544581  3.745746  4.479931
