16  
    
  C    -4.592178 -2.146015  1.488730
  C    -4.399778  1.311096  1.935930
  C    -5.661487 -2.829023  0.754572
  C    -5.609778  0.808405  1.335656
  N    -3.522691 -1.804239  0.754750
  N    -3.565947  1.780956  1.067381
  N    -5.416456 -2.826534 -0.550718
  N    -5.612558  0.679059  0.019812
  N    -6.425239 -2.962367  3.194735
  N    -5.924179  0.861975  3.840755
  S    -7.022568 -3.292058  1.728568
  S    -6.782228  0.415190  2.522415
  S    -3.921069 -2.178926 -0.822571
  S    -4.122331  1.466969 -0.461336
  S    -4.874847 -2.445331  3.200953
  S    -4.415340  1.515611  3.707478
