16  
    
  C     1.475026  1.010509  3.314719
  C     1.459126  4.292120  3.444578
  C     0.245664  0.570335  2.769529
  C     0.145344  4.194680  2.908855
  N     2.488523  1.027507  2.452666
  N     2.357667  4.489894  2.464085
  N     0.333112  0.211845  1.463566
  N     0.055227  3.965911  1.600954
  N    -0.232708  0.810261  5.273221
  N    -0.043628  4.666181  5.412440
  S    -1.081095  0.533788  3.854620
  S    -1.010451  4.172865  4.175992
  S     1.898400  0.516210  1.014232
  S     1.628648  4.219752  1.055246
  S     1.314485  1.319277  4.976793
  S     1.516187  4.803489  5.123930
