16  
    
  C    -5.333573 -2.103431  1.622064
  C    -5.354929  1.140965  1.416481
  C    -6.570245 -2.547198  1.015460
  C    -6.599722  0.842354  0.742538
  N    -4.338614 -1.976387  0.739038
  N    -4.323502  1.243856  0.625674
  N    -6.448085 -2.838387 -0.258047
  N    -6.539007  0.525782 -0.567252
  N    -7.041805 -2.577926  3.498917
  N    -7.041295  1.017942  3.321743
  S    -7.923947 -2.838413  2.114513
  S    -7.893351  0.631225  1.918889
  S    -4.901282 -2.590126 -0.688180
  S    -4.865846  0.778193 -0.912817
  S    -5.476464 -2.017823  3.378415
  S    -5.457056  1.370793  3.179752
