16  
    
  C    -2.509866 -1.831230  1.935519
  C    -3.188120  2.146603  1.738315
  C    -3.802253 -1.951375  1.331891
  C    -4.218546  1.438718  0.987147
  N    -1.538513 -1.905010  1.031223
  N    -2.104342  2.365536  1.002096
  N    -3.808282 -2.200826  0.037716
  N    -4.012670  1.303075 -0.322043
  N    -4.298395 -1.646828  3.853875
  N    -5.019625  1.579376  3.418897
  S    -5.205098 -1.859533  2.497654
  S    -5.592046  0.976717  1.958221
  S    -2.212728 -2.132415 -0.452036
  S    -2.515020  1.890759 -0.536320
  S    -2.639591 -1.509547  3.649298
  S    -3.424571  2.226130  3.436570
