16  
    
  C     2.315192  0.757705  3.536116
  C     1.901520  5.026344  3.120393
  C     0.991793  0.647263  2.945769
  C     0.770628  4.543568  2.342899
  N     3.325286  0.701982  2.677186
  N     2.947950  5.446203  2.382022
  N     1.029601  0.636290  1.604415
  N     1.080776  4.236680  1.063223
  N     0.644272  1.096226  5.383483
  N    -0.031297  4.822273  4.849629
  S    -0.275621  0.508401  4.196873
  S    -0.578354  4.081518  3.351674
  S     2.710413  0.645719  1.153500
  S     2.676683  4.799492  0.852521
  S     2.274569  1.124880  5.220509
  S     1.655803  5.280423  4.845770
