16  
    
  C    -0.344073 -0.411737  2.588893
  C    -0.369640  3.221298  2.589029
  C    -1.524175 -0.759405  1.879784
  C    -1.625613  2.849731  1.933860
  N     0.702952 -0.121986  1.835668
  N     0.658782  3.329412  1.768689
  N    -1.243477 -0.948714  0.613377
  N    -1.493643  2.506853  0.635396
  N    -2.272028 -0.561902  4.339773
  N    -2.070547  3.235147  4.459572
  S    -2.995623 -0.998361  2.904829
  S    -2.889094  2.611439  3.150084
  S     0.268280 -0.493472  0.282322
  S     0.080140  2.948890  0.239987
  S    -0.642872 -0.068785  4.243490
  S    -0.487257  3.639965  4.280695
