16  
    
  C     1.045719  0.215674  2.983552
  C     0.455579  3.822758  2.863055
  C    -0.135376 -0.101948  2.229756
  C    -0.483741  3.037947  2.127002
  N     2.095258  0.568694  2.206602
  N     1.607387  4.058902  2.178544
  N     0.074436 -0.125772  0.916939
  N    -0.227592  2.902233  0.842011
  N    -0.773233 -0.244056  4.741439
  N    -1.439423  3.176443  4.512357
  S    -1.559406 -0.376723  3.294625
  S    -2.000335  2.633590  3.035455
  S     1.609565  0.389716  0.599192
  S     1.197915  3.646434  0.590898
  S     0.790059  0.211908  4.732620
  S     0.129509  3.734114  4.582099
