16  
    
  C    -4.895867 -2.619256  1.947849
  C    -5.386480  0.984897  1.751154
  C    -6.122818 -3.015259  1.335400
  C    -6.606941  0.762371  1.068389
  N    -3.832091 -2.550984  1.146048
  N    -4.340831  1.057158  0.924900
  N    -6.032113 -3.219493  0.009345
  N    -6.474664  0.534946 -0.272715
  N    -6.773994 -2.658577  3.796112
  N    -7.120380  1.009183  3.548278
  S    -7.570735 -2.983398  2.356085
  S    -7.964295  0.634540  2.157702
  S    -4.415862 -3.012798 -0.406942
  S    -4.918593  0.816826 -0.590591
  S    -5.210447 -2.239278  3.647428
  S    -5.528649  1.338658  3.461960
