16  
    
  C     1.801182  0.484787  3.195490
  C     1.924490  4.580504  3.286904
  C     0.601951  0.123985  2.446168
  C     0.755988  4.000449  2.630173
  N     2.844739  0.765476  2.463009
  N     2.943886  4.865110  2.490931
  N     0.776109  0.249946  1.139180
  N     0.925911  3.913338  1.318641
  N    -0.023380  0.043659  4.935878
  N     0.333912  4.009728  5.244345
  S    -0.753546 -0.285210  3.462312
  S    -0.444449  3.714213  3.810815
  S     2.372750  0.706489  0.884895
  S     2.377165  4.609555  0.983330
  S     1.449904  0.610203  4.857744
  S     1.903964  4.477320  5.068983
