16  
    
  C    -2.960844 -1.792482  2.224707
  C    -3.323049  1.726551  2.010748
  C    -4.272579 -1.807541  1.594287
  C    -4.628158  1.348213  1.470154
  N    -1.913052 -1.785771  1.421249
  N    -2.343633  1.918047  1.103819
  N    -4.229073 -1.942958  0.268547
  N    -4.651870  1.274582  0.136526
  N    -4.754620 -1.945492  4.114430
  N    -4.926752  1.393992  4.055442
  S    -5.602869 -1.960000  2.700542
  S    -5.834600  1.081816  2.720576
  S    -2.635028 -1.932483 -0.098168
  S    -3.142270  1.683491 -0.426713
  S    -3.120952 -1.661916  3.945413
  S    -3.331408  1.865140  3.831929
