16  
    
  C     1.392670  0.442180  3.041125
  C     0.959850  3.975400  2.639155
  C     0.206721  0.141930  2.299075
  C    -0.158649  3.470125  1.858252
  N     2.477838  0.313350  2.317423
  N     1.964270  4.316230  1.820661
  N     0.411151 -0.095556  0.985004
  N     0.169405  3.223609  0.577946
  N    -0.617801  0.634984  4.715944
  N    -0.965713  3.709125  4.289778
  S    -1.314147  0.333201  3.248176
  S    -1.584145  3.246808  2.780650
  S     2.060966 -0.046096  0.761653
  S     1.658005  3.815578  0.304042
  S     1.026897  0.899090  4.753640
  S     0.615087  4.234828  4.295091
