16  
    
  C    -2.887269 -1.842813  1.981513
  C    -2.772086  2.318236  1.970627
  C    -4.037887 -2.328715  1.242178
  C    -4.036984  2.137436  1.194713
  N    -1.775654 -1.696234  1.274331
  N    -1.686886  2.459209  1.220727
  N    -3.819409 -2.295759 -0.070722
  N    -3.802582  1.967607 -0.105069
  N    -4.736334 -2.120807  3.716270
  N    -4.584905  1.885998  3.732263
  S    -5.462569 -2.443773  2.239537
  S    -5.375122  1.631387  2.303449
  S    -2.205891 -1.895356 -0.289872
  S    -2.191616  2.114189 -0.359326
  S    -3.152490 -1.687961  3.686466
  S    -3.007875  2.409414  3.686625
