16  
    
  C     0.686936 -0.202108  2.750628
  C     0.336517  3.576573  2.931442
  C    -0.592128 -0.498933  2.148715
  C    -0.833951  3.158121  2.223708
  N     1.707929 -0.056738  1.887504
  N     1.366293  3.871203  2.169387
  N    -0.608854 -0.422610  0.807664
  N    -0.823057  3.497883  0.927655
  N    -1.021862 -0.431251  4.795989
  N    -1.403861  3.125056  4.728883
  S    -1.877407 -0.648420  3.417819
  S    -2.230296  2.860116  3.315464
  S     0.984708 -0.113428  0.381682
  S     0.843308  3.771903  0.585371
  S     0.579602 -0.049279  4.539725
  S     0.202295  3.413058  4.604460
