16  
    
  C    -2.971317 -1.588054  1.978731
  C    -2.528805  2.111526  2.005692
  C    -4.087014 -2.222834  1.340940
  C    -3.782959  1.963461  1.356238
  N    -1.924950 -1.333016  1.201239
  N    -1.511929  2.148950  1.151243
  N    -3.940494 -2.248027  0.007173
  N    -3.756683  1.567458  0.071679
  N    -4.644183 -2.136003  3.795130
  N    -4.207018  2.246232  3.909555
  S    -5.410488 -2.626966  2.394911
  S    -5.095099  2.076700  2.549589
  S    -2.419907 -1.613656 -0.329766
  S    -2.117183  1.691696 -0.323655
  S    -3.083465 -1.604836  3.679175
  S    -2.593285  2.327082  3.742033
