16  
    
  C     1.305059  0.847233  3.236897
  C     1.137869  4.380826  3.003130
  C     0.066247  0.372527  2.710862
  C    -0.034679  3.940999  2.262027
  N     2.292777  0.831923  2.342912
  N     2.154368  4.739716  2.238538
  N     0.099752  0.059379  1.421844
  N     0.180921  3.869453  0.943723
  N    -0.263091  0.800614  5.166904
  N    -0.764570  4.001986  4.783227
  S    -1.134608  0.336274  3.892147
  S    -1.386979  3.631309  3.298647
  S     1.673289  0.258483  0.956928
  S     1.708945  4.356568  0.717469
  S     1.312766  1.202616  4.926387
  S     0.897167  4.379399  4.712756
