16  
    
  C    -0.207626 -0.641719  2.635541
  C    -0.347816  3.355458  2.640082
  C    -1.448680 -1.107814  2.082540
  C    -1.500792  2.667926  2.079099
  N     0.779777 -0.680127  1.789576
  N     0.734729  3.360860  1.833070
  N    -1.393869 -1.403967  0.802439
  N    -1.444743  2.444247  0.768472
  N    -1.821456 -0.650985  4.589522
  N    -2.055557  2.853950  4.620716
  S    -2.663504 -1.225292  3.270800
  S    -2.856125  2.496881  3.195293
  S     0.177210 -1.246538  0.346289
  S     0.063326  2.942314  0.312389
  S    -0.263694 -0.308108  4.339181
  S    -0.483885  3.437850  4.351784
