16  
    
  C    -5.832722 -2.733561  1.269135
  C    -5.634079  0.809534  1.527098
  C    -7.065421 -3.028091  0.603614
  C    -6.840396  0.367719  0.859853
  N    -4.790532 -2.531707  0.482421
  N    -4.568137  0.865982  0.722270
  N    -6.915197 -3.168645 -0.708167
  N    -6.642227  0.311266 -0.471629
  N    -7.439705 -3.237276  3.169810
  N    -7.408827  0.503042  3.315285
  S    -8.333506 -3.437761  1.809479
  S    -8.212397  0.305361  1.878973
  S    -5.300820 -2.825573 -1.062543
  S    -5.057299  0.573144 -0.816981
  S    -5.978342 -2.490239  2.964986
  S    -5.898748  1.116634  3.310489
