16  
    
  C    -3.965136 -1.887958  1.712157
  C    -3.595466  1.937992  1.807872
  C    -5.172295 -2.439133  1.098439
  C    -4.793148  1.443703  1.149366
  N    -2.928308 -1.686894  0.886442
  N    -2.647000  2.282536  0.957746
  N    -5.061388 -2.517956 -0.211047
  N    -4.773550  1.347520 -0.190026
  N    -5.634790 -2.396746  3.636633
  N    -5.180604  1.212312  3.702195
  S    -6.469679 -2.838593  2.234559
  S    -6.106801  1.189107  2.379014
  S    -3.477347 -2.118078 -0.651850
  S    -3.266682  1.955168 -0.642179
  S    -4.073814 -1.882355  3.450293
  S    -3.793362  2.063378  3.535832
