16  
    
  C     2.792434  1.590195  3.480378
  C     2.865874  5.223080  3.315092
  C     1.632397  0.927491  2.933052
  C     1.656988  4.674422  2.697356
  N     3.799179  1.675209  2.597999
  N     3.829336  5.524872  2.441700
  N     1.734956  0.602320  1.643777
  N     1.830584  4.303204  1.428375
  N     1.314339  1.226811  5.506057
  N     1.361250  4.700464  5.258563
  S     0.440945  0.628978  4.207765
  S     0.486663  4.216906  3.853913
  S     3.324511  1.072733  1.203438
  S     3.296076  5.051920  0.984495
  S     2.677510  2.036764  5.132862
  S     2.785236  5.504183  4.978704
