16  
    
  C     2.632291  1.035204  3.134100
  C     2.523779  4.971819  3.540013
  C     1.424370  0.583709  2.470980
  C     1.395345  4.277952  2.984721
  N     3.703560  1.170026  2.364224
  N     3.495231  5.275838  2.692509
  N     1.521341  0.476052  1.153435
  N     1.512173  4.012605  1.686891
  N     0.838129  0.799696  5.031946
  N     0.836020  4.543731  5.392421
  S     0.102116  0.406462  3.517698
  S     0.051298  4.243561  4.042263
  S     3.090730  0.807499  0.784748
  S     2.979027  4.668854  1.181573
  S     2.423133  1.288201  4.833352
  S     2.333190  5.194221  5.267859
