16  
    
  C     3.320389  1.466480  3.387820
  C     3.109115  5.051512  3.459438
  C     2.009220  1.347541  2.791791
  C     1.882109  4.498283  2.913003
  N     4.331754  1.465871  2.532378
  N     4.144304  5.069934  2.624380
  N     1.972299  1.197433  1.455751
  N     1.957736  4.394328  1.564299
  N     1.681385  1.799557  5.324788
  N     1.459132  5.001013  5.430542
  S     0.742375  1.646492  3.999204
  S     0.561119  4.679660  4.084199
  S     3.547706  1.339031  1.016513
  S     3.538457  4.733029  1.165687
  S     3.302039  1.735678  5.054685
  S     3.019084  5.352498  5.132600
