16  
    
  C    -4.077889 -2.251137  1.765931
  C    -4.109715  1.408186  1.679333
  C    -5.431722 -2.281636  1.202282
  C    -5.315864  1.182582  0.986913
  N    -3.129352 -2.259234  0.862101
  N    -3.028028  1.233601  0.956528
  N    -5.463786 -2.416226 -0.135691
  N    -5.197624  1.151208 -0.356723
  N    -5.673926 -1.904937  3.777097
  N    -5.961018  1.549668  3.524561
  S    -6.638903 -2.292252  2.458307
  S    -6.723171  1.323276  2.109729
  S    -3.896882 -2.315558 -0.620719
  S    -3.578501  1.133175 -0.656658
  S    -4.044885 -1.866491  3.505353
  S    -4.307199  1.674510  3.402943
