16  
    
  C     3.248389  1.549686  3.720926
  C     3.209563  5.010053  3.436069
  C     1.960334  1.252062  3.103261
  C     2.003331  4.534336  2.811581
  N     4.306136  1.646892  2.923914
  N     4.298081  5.088066  2.674668
  N     2.100715  1.087556  1.813464
  N     2.095411  4.572188  1.478126
  N     1.376741  1.464597  5.532918
  N     1.337212  5.161451  5.225853
  S     0.578043  1.190605  4.098344
  S     0.617683  4.677593  3.829350
  S     3.657913  1.337340  1.342382
  S     3.705141  4.787958  1.088724
  S     3.017664  1.739483  5.472461
  S     2.999068  5.222674  5.195638
