16  
    
  C    -2.858773 -1.772557  2.018417
  C    -2.700678  2.258579  2.014618
  C    -4.023574 -2.155338  1.286440
  C    -3.922079  1.907127  1.288708
  N    -1.779312 -1.543975  1.269224
  N    -1.658749  2.271265  1.188160
  N    -3.819263 -2.386782 -0.008538
  N    -3.825931  1.946061 -0.029679
  N    -4.780927 -2.214191  3.680910
  N    -4.548468  1.905195  3.826404
  S    -5.494064 -2.526504  2.202475
  S    -5.302036  1.781370  2.310019
  S    -2.278177 -1.868334 -0.313999
  S    -2.163616  2.108594 -0.372942
  S    -3.171773 -1.685741  3.687956
  S    -2.934652  2.453051  3.749295
