16  
    
  C    -1.343615 -0.588361  1.819564
  C    -1.186340  3.254979  2.098355
  C    -2.652354 -1.203765  1.489714
  C    -2.459860  2.756260  1.555438
  N    -0.474857 -0.578346  0.811034
  N    -0.290664  3.683510  1.206193
  N    -2.753074 -1.387775  0.192514
  N    -2.413405  2.576323  0.244464
  N    -2.782504 -0.557536  4.009240
  N    -2.790849  2.911154  4.078721
  S    -3.693346 -1.420886  2.843874
  S    -3.558736  2.274049  2.762461
  S    -1.340415 -1.053152 -0.518291
  S    -0.963541  3.268243 -0.276980
  S    -1.228781 -0.183774  3.482699
  S    -1.305967  3.604347  3.851990
