16  
    
  C     0.903517  0.351202  2.861513
  C     0.593365  3.484111  2.740096
  C    -0.314174 -0.147078  2.232357
  C    -0.723051  3.443717  2.082873
  N     1.891752  0.597526  2.009107
  N     1.616067  3.658794  1.903170
  N    -0.206444 -0.218426  0.916746
  N    -0.679575  3.254800  0.771840
  N    -0.820812 -0.039928  4.810922
  N    -1.152867  3.261797  4.606828
  S    -1.556050 -0.538855  3.398520
  S    -1.921579  2.898257  3.188519
  S     1.301941  0.249328  0.457316
  S     0.925396  3.655895  0.356573
  S     0.701952  0.464094  4.544071
  S     0.487486  3.560970  4.507109
