16  
    
  C     1.301490  0.856235  3.243643
  C     1.128008  4.404864  3.003215
  C     0.069895  0.379169  2.722605
  C    -0.020516  3.929557  2.290159
  N     2.291017  0.836134  2.329579
  N     2.159565  4.714367  2.235987
  N     0.101152  0.053081  1.434323
  N     0.179207  3.886656  0.977855
  N    -0.276138  0.808764  5.177646
  N    -0.758137  4.019164  4.797452
  S    -1.133329  0.341359  3.893953
  S    -1.388096  3.634884  3.308184
  S     1.675312  0.252231  0.961504
  S     1.702176  4.365965  0.718684
  S     1.323021  1.204261  4.939368
  S     0.909265  4.383265  4.715328
