16  
    
  C    -2.680874 -1.912794  1.994810
  C    -2.932046  2.261587  1.855672
  C    -3.922837 -1.973878  1.285849
  C    -4.022465  1.627527  1.150921
  N    -1.579668 -1.859738  1.229284
  N    -1.947531  2.633609  1.046371
  N    -3.789141 -2.232154 -0.010752
  N    -3.888059  1.613442 -0.185159
  N    -4.561021 -1.854802  3.740519
  N    -4.797055  1.751079  3.596580
  S    -5.304914 -2.166529  2.261806
  S    -5.474966  1.413724  2.122883
  S    -2.183058 -2.138339 -0.340963
  S    -2.368230  2.299128 -0.536305
  S    -2.915009 -1.745009  3.736214
  S    -3.240775  2.322915  3.599965
