16  
    
  C     3.198199  1.462726  3.668015
  C     3.169051  5.082304  3.497462
  C     1.938973  1.353831  2.991525
  C     1.913902  4.738916  2.814576
  N     4.226659  1.414727  2.843917
  N     4.242209  5.003687  2.719320
  N     2.001464  1.328579  1.651569
  N     2.044802  4.575880  1.512336
  N     1.603093  1.216885  5.552032
  N     1.378231  5.142986  5.249394
  S     0.665252  1.321198  4.183337
  S     0.548790  4.748715  3.869205
  S     3.643073  1.334410  1.290582
  S     3.667168  4.712284  1.152989
  S     3.175217  1.745974  5.352633
  S     3.077635  5.219788  5.206258
