16  
    
  C     2.205644  0.935525  3.404157
  C     2.082424  4.595772  2.965173
  C     0.955086  0.579140  2.805668
  C     0.815064  4.323505  2.327630
  N     3.229649  1.118576  2.586148
  N     3.138445  4.874873  2.161564
  N     1.015637  0.342368  1.492219
  N     0.935626  4.067726  1.003654
  N     0.593751  0.902767  5.281968
  N     0.310176  4.400581  4.913389
  S    -0.320260  0.654546  3.941881
  S    -0.445604  3.891025  3.441090
  S     2.638302  0.734455  1.076892
  S     2.486847  4.487797  0.670483
  S     2.198233  1.019416  5.103134
  S     1.900953  4.880817  4.617906
