16  
    
  C     0.876804  0.417743  2.964391
  C     0.513143  3.687728  2.936560
  C    -0.370958 -0.075442  2.341302
  C    -0.847633  3.502869  2.384745
  N     1.953826  0.373286  2.172935
  N     1.484212  3.716689  2.039767
  N    -0.280271 -0.211872  1.041264
  N    -0.860218  3.541830  1.077406
  N    -0.888532  0.269378  4.775375
  N    -1.059960  3.587778  4.975292
  S    -1.724577 -0.158843  3.394432
  S    -2.030174  3.289107  3.581053
  S     1.328728 -0.010613  0.691194
  S     0.756064  3.706399  0.558260
  S     0.711441  0.642935  4.606555
  S     0.520864  3.793970  4.661493
