16  
    
  C     2.058071  0.681792  3.138951
  C     2.045828  4.487320  2.928111
  C     0.789095  0.445967  2.552362
  C     0.839411  3.924849  2.384061
  N     3.098297  0.638031  2.271562
  N     3.154523  4.520410  2.196238
  N     0.854300  0.151253  1.222524
  N     1.068323  3.641304  1.112682
  N     0.339711  0.995504  5.108843
  N     0.328364  4.449742  4.853280
  S    -0.543173  0.638075  3.710497
  S    -0.531689  3.939463  3.521049
  S     2.410310  0.288218  0.801794
  S     2.601266  4.006358  0.714728
  S     2.039647  0.973054  4.896181
  S     1.902130  4.782426  4.705310
