16  
    
  C    -4.002079 -1.911326  1.698730
  C    -3.623894  1.850608  1.808562
  C    -5.182476 -2.360803  1.064297
  C    -4.894506  1.385408  1.235716
  N    -2.947396 -1.694020  0.907714
  N    -2.689823  2.219967  0.927531
  N    -5.041502 -2.535287 -0.263358
  N    -4.780202  1.371554 -0.097049
  N    -5.784835 -2.109000  3.577581
  N    -5.302804  1.312463  3.745654
  S    -6.371185 -2.820353  2.215317
  S    -6.189566  1.167800  2.308179
  S    -3.491496 -2.105108 -0.597091
  S    -3.311435  1.925052 -0.540443
  S    -4.150442 -1.757152  3.469870
  S    -3.732087  1.998149  3.543870
