16  
    
  C    -1.383643 -0.648780  1.824029
  C    -1.292775  3.353408  2.053377
  C    -2.666562 -1.208282  1.470708
  C    -2.463336  2.649975  1.511355
  N    -0.507244 -0.610827  0.825842
  N    -0.324548  3.643864  1.209494
  N    -2.778949 -1.399655  0.119858
  N    -2.404589  2.674679  0.208688
  N    -2.680437 -0.792405  4.008796
  N    -2.897772  2.869674  4.041843
  S    -3.652947 -1.491540  2.848716
  S    -3.620697  2.211486  2.689436
  S    -1.299162 -1.104594 -0.515632
  S    -0.935103  3.258414 -0.299883
  S    -1.188890 -0.265823  3.523932
  S    -1.444053  3.658364  3.774184
