16  
    
  C     1.091306  0.077761  2.942678
  C     0.904208  3.748048  2.987134
  C    -0.187096 -0.450401  2.492412
  C    -0.359305  3.322415  2.456832
  N     1.996069  0.203718  1.973360
  N     1.891168  3.848975  2.145781
  N    -0.242186 -0.617746  1.153048
  N    -0.440305  3.221142  1.125426
  N    -0.424525 -0.100913  5.112548
  N    -0.685863  3.667847  5.004307
  S    -1.320135 -0.516302  3.739795
  S    -1.652080  3.331653  3.637987
  S     1.249183 -0.222596  0.526464
  S     1.157913  3.439901  0.622001
  S     1.115615  0.338515  4.632720
  S     0.843995  4.100399  4.687843
