16  
    
  C    -2.238837 -1.099670  2.073733
  C    -2.639141  2.516950  2.224564
  C    -3.243279 -1.922636  1.440724
  C    -3.777846  1.848733  1.663037
  N    -1.332632 -0.666237  1.178063
  N    -1.685938  2.857219  1.352450
  N    -3.131092 -2.027187  0.089993
  N    -3.691828  1.652396  0.372073
  N    -3.782736 -1.680924  3.997358
  N    -4.375505  2.310496  4.126165
  S    -4.470382 -2.349677  2.597520
  S    -5.169004  1.720041  2.773717
  S    -1.750524 -1.151248 -0.319825
  S    -2.264121  2.359853 -0.115067
  S    -2.303824 -0.977311  3.778675
  S    -2.833855  2.871213  3.924850
