16  
    
  C    -5.713445 -3.171993  1.612723
  C    -6.053431  0.744838  1.346348
  C    -6.928179 -3.398476  0.814969
  C    -7.240339  0.137131  0.836761
  N    -4.633074 -2.902763  0.870976
  N    -5.176714  1.249482  0.471900
  N    -6.721852 -3.640097 -0.486932
  N    -7.222230  0.146339 -0.492529
  N    -7.808513 -3.076976  3.191932
  N    -7.697098  0.258502  3.379010
  S    -8.420569 -3.448450  1.704724
  S    -8.469021 -0.234294  1.988964
  S    -5.095923 -3.292740 -0.741856
  S    -5.846131  0.981982 -1.069016
  S    -6.116955 -3.033427  3.353306
  S    -6.146317  0.875680  3.100794
