16  
    
  C    -1.673916 -1.053429  2.622191
  C    -1.775406  2.517704  2.482271
  C    -2.863287 -1.558375  1.920039
  C    -3.044975  2.371076  1.727014
  N    -0.576212 -0.980754  1.897407
  N    -0.771435  2.588199  1.635886
  N    -2.712676 -1.535174  0.615887
  N    -2.968457  2.172901  0.408574
  N    -3.437701 -1.555516  4.363285
  N    -3.607591  2.373233  4.281465
  S    -4.277158 -1.796398  2.945447
  S    -4.361775  2.056502  2.827848
  S    -1.125049 -1.243918  0.335703
  S    -1.312634  2.389629  0.064039
  S    -1.893820 -0.980486  4.313731
  S    -1.971937  2.572022  4.180564
