16  
    
  C     2.359739  0.853832  3.517863
  C     1.954668  4.985310  3.040854
  C     1.070355  0.703273  2.930584
  C     0.812448  4.380700  2.374389
  N     3.335305  0.831981  2.612959
  N     2.970141  5.330563  2.235045
  N     1.035765  0.588691  1.612066
  N     1.095276  3.955850  1.163321
  N     0.604852  0.987515  5.421445
  N     0.129869  4.469630  4.882650
  S    -0.182029  0.546063  4.035398
  S    -0.535390  4.170999  3.372079
  S     2.635957  0.604793  1.142237
  S     2.533496  4.724880  0.719650
  S     2.274418  1.054599  5.272190
  S     1.672599  5.139598  4.770358
