16  
    
  C    -2.529663 -1.923750  1.930350
  C    -3.097757  2.181009  1.712163
  C    -3.836699 -2.084018  1.337717
  C    -4.163364  1.548856  0.996258
  N    -1.510747 -1.996588  1.070146
  N    -2.051806  2.501851  0.971809
  N    -3.788808 -2.300919  0.039110
  N    -4.017553  1.530800 -0.319898
  N    -4.331030 -1.781863  3.797849
  N    -4.967053  1.601146  3.519138
  S    -5.135009 -1.832554  2.406594
  S    -5.509656  1.007758  2.047564
  S    -2.184414 -2.166061 -0.412178
  S    -2.476227  2.057431 -0.612354
  S    -2.637376 -1.624829  3.649939
  S    -3.378156  2.270373  3.466391
