16  
    
  C    -5.824365 -2.747687  1.185866
  C    -5.679163  0.873412  1.551397
  C    -7.036339 -3.175440  0.588019
  C    -6.894002  0.512582  0.863596
  N    -4.833663 -2.576603  0.315711
  N    -4.540890  1.006253  0.812432
  N    -6.978048 -3.245131 -0.724324
  N    -6.732061  0.245591 -0.442243
  N    -7.357909 -3.313797  3.167504
  N    -7.559202  0.536047  3.380890
  S    -8.249218 -3.580452  1.790421
  S    -8.237742  0.209894  1.900765
  S    -5.414283 -2.869106 -1.160024
  S    -5.116206  0.588101 -0.727095
  S    -5.910394 -2.507923  2.908456
  S    -5.952416  1.059723  3.235185
