16  
    
  C     1.598711  0.839201  3.245103
  C     2.052395  4.513028  3.233629
  C     0.536432  0.224598  2.474779
  C     0.836802  4.000826  2.668193
  N     2.633719  1.177188  2.522875
  N     3.088738  4.719177  2.406098
  N     0.814833  0.100506  1.182190
  N     0.915589  3.948907  1.365501
  N    -0.230361  0.380065  4.953421
  N     0.262644  4.365358  5.180748
  S    -0.920506 -0.049184  3.532667
  S    -0.545967  3.788946  3.850808
  S     2.324321  0.742519  0.957506
  S     2.437984  4.243316  0.918517
  S     1.269735  1.100658  4.991333
  S     1.820234  4.945649  4.973259
