16  
    
  C    -4.257212 -2.430396  1.514973
  C    -4.309491  1.469679  2.036996
  C    -5.483273 -2.942928  0.892593
  C    -5.468128  0.968722  1.375892
  N    -3.180071 -2.353182  0.684067
  N    -3.298583  1.755867  1.226781
  N    -5.326167 -3.184609 -0.395577
  N    -5.300850  0.622682  0.087737
  N    -6.018675 -2.574746  3.411787
  N    -6.122704  1.464549  3.746287
  S    -6.812450 -3.079203  2.040079
  S    -6.858646  0.866423  2.317867
  S    -3.732872 -2.798667 -0.808944
  S    -3.731914  1.256843 -0.269048
  S    -4.433343 -2.188399  3.225875
  S    -4.523507  1.971826  3.734619
