16  
    
  C     2.497059  1.101576  3.308412
  C     2.977263  5.347268  3.776483
  C     1.360106  0.603821  2.578296
  C     1.672229  5.089501  3.238845
  N     3.522793  1.301176  2.513177
  N     3.971673  5.179159  2.917111
  N     1.537130  0.409059  1.277399
  N     1.627881  4.749381  1.953681
  N     0.728159  0.685128  5.074880
  N     1.314129  5.494989  5.760109
  S     0.039393  0.254010  3.602830
  S     0.409936  5.432123  4.377745
  S     3.108208  0.891593  1.010243
  S     3.199137  4.631504  1.504102
  S     2.238457  1.320712  5.026394
  S     2.956646  5.686745  5.502063
