16  
    
  C    -4.082668 -2.210963  1.769977
  C    -4.114972  1.382765  1.692670
  C    -5.416408 -2.288997  1.204920
  C    -5.337542  1.187937  0.979710
  N    -3.145344 -2.262364  0.860886
  N    -3.043688  1.228487  0.946023
  N    -5.477685 -2.408067 -0.129845
  N    -5.198424  1.148915 -0.352113
  N    -5.663138 -1.929335  3.790632
  N    -5.961810  1.541755  3.507261
  S    -6.661444 -2.292279  2.480161
  S    -6.724800  1.319851  2.097154
  S    -3.903997 -2.332181 -0.621733
  S    -3.583441  1.137412 -0.637215
  S    -4.038891 -1.878957  3.515427
  S    -4.317207  1.673976  3.414956
