16  
    
  C    -5.446169 -2.681825  1.543630
  C    -5.523497  0.998340  1.346391
  C    -6.646252 -3.046260  0.877091
  C    -6.683950  0.406438  0.648918
  N    -4.374987 -2.715514  0.721085
  N    -4.525096  1.275177  0.526488
  N    -6.511290 -3.138414 -0.429247
  N    -6.542935  0.350903 -0.663217
  N    -7.232035 -3.303539  3.384662
  N    -7.215095  0.470150  3.200954
  S    -8.025079 -3.447974  1.923785
  S    -8.011575  0.106887  1.784661
  S    -4.925437 -3.046433 -0.813254
  S    -4.989900  0.879599 -1.002551
  S    -5.700466 -2.543711  3.331847
  S    -5.700504  1.221986  3.124753
