16  
    
  C    -2.982830 -1.651998  2.297705
  C    -3.310133  1.762243  2.035970
  C    -4.236981 -1.920298  1.640078
  C    -4.615200  1.479594  1.441773
  N    -1.973000 -1.693188  1.402450
  N    -2.421745  1.997401  1.089115
  N    -4.216135 -1.895098  0.313611
  N    -4.615876  1.276680  0.110608
  N    -4.800069 -1.904662  4.077337
  N    -4.916759  1.345822  4.088732
  S    -5.638433 -1.880811  2.680989
  S    -5.823579  1.057432  2.700599
  S    -2.626551 -1.903662 -0.076155
  S    -3.126533  1.729260 -0.433561
  S    -3.129505 -1.649726  4.004579
  S    -3.304779  1.892704  3.833929
