16  
    
  C    -2.090673 -0.981464  2.003517
  C    -2.653809  2.571663  2.129671
  C    -3.124096 -1.842312  1.437601
  C    -3.857190  2.112562  1.515253
  N    -1.145281 -0.717498  1.141021
  N    -1.674469  2.827003  1.280756
  N    -3.089891 -1.967485  0.137149
  N    -3.726119  1.714089  0.231186
  N    -3.527176 -1.876924  3.942635
  N    -4.340059  2.462886  4.029900
  S    -4.426114 -2.235941  2.592846
  S    -5.108586  1.855870  2.709911
  S    -1.657149 -1.245205 -0.346535
  S    -2.175614  2.203616 -0.215877
  S    -2.224895 -0.920308  3.719828
  S    -2.755849  2.856197  3.846683
