16  
    
  C    -3.986052 -2.007582  1.768058
  C    -3.995826  1.575211  1.691949
  C    -5.261448 -2.217807  1.061121
  C    -5.204754  1.265328  1.055806
  N    -2.993233 -1.936485  0.864010
  N    -2.921872  1.518562  0.903788
  N    -5.184590 -2.514449 -0.238252
  N    -5.191454  1.106624 -0.254610
  N    -5.786510 -1.842859  3.586882
  N    -5.700492  1.582912  3.584527
  S    -6.617862 -2.279851  2.200653
  S    -6.533757  1.362618  2.114610
  S    -3.565268 -2.283986 -0.669968
  S    -3.547620  1.208596 -0.638194
  S    -4.099086 -1.705557  3.435490
  S    -4.048613  1.666380  3.429430
