16  
    
  C     0.671723  0.305943  3.019272
  C     0.797106  3.617709  2.796920
  C    -0.601032 -0.056126  2.384920
  C    -0.576835  3.383994  2.264365
  N     1.616619  0.444143  2.142553
  N     1.653743  4.085841  1.878714
  N    -0.523933 -0.339556  1.086998
  N    -0.522969  3.322116  0.926269
  N    -1.016335  0.280708  4.884682
  N    -0.985372  3.549098  4.757891
  S    -1.889585 -0.077783  3.497330
  S    -1.865721  3.237501  3.409024
  S     1.035282 -0.003701  0.666244
  S     0.966740  3.686588  0.442545
  S     0.675650  0.488410  4.742216
  S     0.651438  3.804309  4.554479
