16  
    
  C     1.793760  0.586029  3.040891
  C     1.931327  4.355819  3.357840
  C     0.559780  0.244157  2.436725
  C     0.682501  4.071761  2.701492
  N     2.821396  0.832731  2.177020
  N     2.986136  4.385181  2.559861
  N     0.589830  0.141331  1.091763
  N     0.722363  4.134013  1.397497
  N     0.046635  0.311898  4.970439
  N     0.138131  3.960437  5.263750
  S    -0.749526 -0.071545  3.584093
  S    -0.545538  3.712331  3.781061
  S     2.143102  0.501952  0.667721
  S     2.329265  4.483754  0.994322
  S     1.683440  0.438438  4.777906
  S     1.816859  4.292994  5.123261
