16  
    
  C     1.777047  0.539698  3.031545
  C     1.880239  4.262511  3.346551
  C     0.483066  0.169895  2.427795
  C     0.638157  3.941807  2.715610
  N     2.731910  0.757671  2.165598
  N     2.930477  4.338355  2.533551
  N     0.510238  0.027081  1.135854
  N     0.651644  4.228034  1.397628
  N     0.196733  0.305291  4.948134
  N     0.142151  3.926214  5.233038
  S    -0.747744  0.104559  3.660546
  S    -0.732160  3.848014  3.807586
  S     2.088935  0.446904  0.674577
  S     2.331483  4.264535  0.954212
  S     1.854261  0.553165  4.747552
  S     1.830140  4.235764  5.005209
