16  
    
  C    -0.101641 -0.608928  2.565453
  C    -0.015782  3.292432  2.631930
  C    -1.240579 -1.035694  1.868380
  C    -1.166798  2.622164  1.921922
  N     0.841942 -0.132963  1.751103
  N     0.932814  3.743822  1.774222
  N    -1.105751 -1.187991  0.545654
  N    -0.900942  2.292196  0.668467
  N    -1.857209 -0.986803  4.344531
  N    -1.918818  2.858330  4.335948
  S    -2.586385 -1.341792  2.888845
  S    -2.528115  2.309923  2.915154
  S     0.372695 -0.542288  0.200384
  S     0.470629  3.154977  0.245542
  S    -0.212235 -0.495368  4.313552
  S    -0.363859  3.512101  4.327160
