16  
    
  C    -2.877708 -1.641434  2.021377
  C    -2.370271  1.942623  2.025753
  C    -4.122074 -1.993602  1.407201
  C    -3.675940  1.827355  1.469736
  N    -1.942185 -1.367116  1.162640
  N    -1.329417  1.873577  1.199959
  N    -4.104835 -2.113094  0.094331
  N    -3.653331  1.676776  0.152380
  N    -4.380164 -2.047447  4.040431
  N    -4.072032  2.286992  4.000168
  S    -5.271032 -2.355421  2.696830
  S    -4.992325  2.090633  2.643005
  S    -2.479216 -1.727226 -0.324485
  S    -2.038157  1.805942 -0.311267
  S    -2.816686 -1.537934  3.737130
  S    -2.444652  2.359142  3.719839
