16  
    
  C    -3.753718 -2.484978  1.643462
  C    -3.410087  1.776438  1.553804
  C    -5.029135 -2.448821  0.977903
  C    -4.536933  1.129870  0.990931
  N    -2.744069 -2.280331  0.818716
  N    -2.367253  1.809250  0.700766
  N    -4.999047 -2.345135 -0.366646
  N    -4.428167  0.896717 -0.333996
  N    -5.523425 -2.855487  3.508178
  N    -5.071178  1.444540  3.515706
  S    -6.380827 -2.708099  2.084812
  S    -5.821699  0.914381  2.175980
  S    -3.409110 -2.183581 -0.704020
  S    -2.868984  1.310205 -0.767676
  S    -3.920601 -2.612707  3.357546
  S    -3.604694  2.141716  3.318200
