16  
    
  C    -4.712108 -2.652643  1.523613
  C    -4.729761  0.887826  1.444015
  C    -6.010858 -2.852689  1.002281
  C    -5.935637  0.619957  0.729663
  N    -3.720919 -2.519433  0.623542
  N    -3.651392  0.942447  0.650353
  N    -5.989774 -3.143316 -0.297871
  N    -5.875199  0.663191 -0.589070
  N    -6.344943 -2.547459  3.499990
  N    -6.522610  0.919196  3.214206
  S    -7.235850 -3.031980  2.167784
  S    -7.258747  0.547405  1.745955
  S    -4.435694 -3.008007 -0.775664
  S    -4.205212  1.002688 -0.915583
  S    -4.727180 -2.468570  3.263775
  S    -4.915431  1.131459  3.158181
