16  
    
  C    -2.730064 -1.529669  2.159014
  C    -2.453085  2.388311  2.181620
  C    -3.971491 -2.007789  1.495048
  C    -3.715798  2.068090  1.536993
  N    -1.752852 -1.330368  1.297611
  N    -1.417513  2.468453  1.372889
  N    -3.962235 -1.987129  0.161777
  N    -3.574804  1.854015  0.250327
  N    -4.407032 -1.499162  4.043001
  N    -4.198685  1.872629  4.059262
  S    -5.231470 -2.103609  2.715183
  S    -5.077125  1.770908  2.670028
  S    -2.376699 -1.618518 -0.219180
  S    -2.006915  2.113108 -0.191867
  S    -2.772512 -1.402641  3.869619
  S    -2.622060  2.357611  3.904636
