16  
    
  C    -5.334224 -2.073746  1.632048
  C    -5.355246  1.155540  1.425694
  C    -6.531926 -2.584360  1.039163
  C    -6.625740  0.886614  0.728044
  N    -4.326056 -2.042980  0.786098
  N    -4.308723  1.263933  0.632936
  N    -6.475270 -2.854817 -0.263605
  N    -6.559469  0.556511 -0.570075
  N    -7.046100 -2.576488  3.512631
  N    -7.071290  1.036854  3.363253
  S    -7.893098 -2.818463  2.123920
  S    -7.885025  0.663905  1.921815
  S    -4.902308 -2.595844 -0.673478
  S    -4.874918  0.755808 -0.893151
  S    -5.469517 -1.999316  3.391090
  S    -5.449884  1.362323  3.175806
