16  
    
  C    -4.220916 -2.195554  2.074122
  C    -4.186776  1.365584  1.879890
  C    -5.510636 -2.533286  1.500602
  C    -5.445477  1.225955  1.247689
  N    -3.251714 -2.109727  1.153321
  N    -3.078515  1.467154  1.141813
  N    -5.586868 -2.445393  0.176051
  N    -5.334203  1.046022 -0.050530
  N    -5.815660 -2.097091  4.046189
  N    -6.007856  1.466089  3.624976
  S    -6.737867 -2.390695  2.722350
  S    -6.828196  1.182423  2.223793
  S    -3.988200 -2.166567 -0.326352
  S    -3.675301  1.193338 -0.397940
  S    -4.231050 -1.902042  3.731983
  S    -4.361691  1.530780  3.584605
