16  
    
  C     2.098599  0.780285  3.129848
  C     2.129923  4.522224  3.039732
  C     0.775616  0.591934  2.527171
  C     0.983781  3.887919  2.405826
  N     3.088752  0.596026  2.299266
  N     3.162664  4.653691  2.186260
  N     0.794702  0.307659  1.236233
  N     1.085561  3.629820  1.079807
  N     0.360373  1.061991  4.947667
  N     0.211366  4.476032  4.854910
  S    -0.506217  0.588918  3.663671
  S    -0.474573  3.962233  3.447540
  S     2.452883  0.234765  0.802243
  S     2.687583  4.005580  0.737639
  S     1.966621  1.037659  4.835502
  S     1.908112  4.768772  4.661507
