16  
    
  C    -2.980760 -1.378762  2.095368
  C    -3.193061  1.852419  1.964596
  C    -4.211679 -1.796904  1.457963
  C    -4.378894  1.530922  1.166938
  N    -1.993979 -1.158711  1.255062
  N    -2.109713  1.887492  1.223484
  N    -4.079223 -1.916778  0.150955
  N    -4.142334  1.333856 -0.143701
  N    -4.636023 -1.677002  3.997433
  N    -5.108116  1.698920  3.648165
  S    -5.535623 -2.007007  2.589810
  S    -5.779430  1.204746  2.232188
  S    -2.487467 -1.567433 -0.240458
  S    -2.498048  1.620613 -0.354279
  S    -3.127233 -1.075892  3.784094
  S    -3.498063  1.998762  3.682131
