16  
    
  C    -2.527118 -1.189488  2.173165
  C    -2.591877  2.504817  2.371049
  C    -3.736590 -1.740367  1.505182
  C    -3.759101  1.907063  1.727227
  N    -1.502229 -0.956394  1.382884
  N    -1.701165  2.978944  1.490740
  N    -3.590777 -1.800694  0.207244
  N    -3.622528  1.767083  0.427198
  N    -4.267155 -1.800062  4.007431
  N    -4.371279  2.021206  4.174770
  S    -5.065908 -2.024022  2.571171
  S    -5.037850  1.391117  2.797457
  S    -2.043961 -1.416478 -0.155748
  S    -2.254248  2.577318 -0.020763
  S    -2.797751 -1.023943  3.958950
  S    -2.841383  2.599573  4.090646
