16  
    
  C     2.796129  1.377689  3.645557
  C     2.955361  5.196168  3.568960
  C     1.571436  0.844591  3.119506
  C     1.735070  4.893988  2.851043
  N     3.739520  1.656522  2.777658
  N     3.971637  5.525496  2.787605
  N     1.617178  0.623665  1.808744
  N     1.875860  4.804191  1.539847
  N     1.046526  1.450981  5.514184
  N     1.103306  4.926572  5.347586
  S     0.254022  0.720019  4.235849
  S     0.366644  4.576017  3.870674
  S     3.140354  1.152755  1.326929
  S     3.478914  5.278069  1.247877
  S     2.664605  1.590737  5.314658
  S     2.677171  5.346529  5.261362
