16  
    
  C     0.962735  0.280241  2.899353
  C     0.533241  3.607504  2.738780
  C    -0.272537 -0.135425  2.185472
  C    -0.631484  3.079124  2.087579
  N     1.942037  0.606343  2.045833
  N     1.636511  3.797807  1.953364
  N    -0.149923 -0.161990  0.866554
  N    -0.515100  3.298514  0.779797
  N    -0.785884 -0.143007  4.714102
  N    -1.236845  3.289595  4.620187
  S    -1.555201 -0.555668  3.301842
  S    -2.020443  2.807241  3.161249
  S     1.415488  0.358938  0.497923
  S     1.039161  3.576349  0.443205
  S     0.797426  0.360095  4.680275
  S     0.331699  3.628094  4.459102
