16  
    
  C     3.439334  1.670101  3.608239
  C     2.972119  5.188426  3.382700
  C     2.194319  1.189552  3.080541
  C     1.846690  4.673837  2.684694
  N     4.305131  1.875777  2.641104
  N     4.020731  5.543771  2.608634
  N     2.165255  1.009473  1.780062
  N     2.067129  4.429096  1.392863
  N     1.930641  1.439905  5.688391
  N     1.335572  4.742488  5.277406
  S     1.070488  0.938014  4.344324
  S     0.537589  4.310258  3.873009
  S     3.649612  1.432679  1.198807
  S     3.653402  4.906469  1.096925
  S     3.559975  1.693925  5.338237
  S     2.792949  5.552360  5.064293
