16  
    
  C    -5.736568 -3.156970  1.600527
  C    -6.052993  0.734497  1.359115
  C    -6.931897 -3.416527  0.813980
  C    -7.229579  0.156220  0.846154
  N    -4.636906 -2.911050  0.895496
  N    -5.202725  1.257863  0.463357
  N    -6.725923 -3.626662 -0.488210
  N    -7.223073  0.142245 -0.480367
  N    -7.791876 -3.083694  3.207635
  N    -7.701462  0.258572  3.389269
  S    -8.414157 -3.462011  1.710753
  S    -8.451216 -0.254943  1.999494
  S    -5.090737 -3.297917 -0.728825
  S    -5.856143  0.975642 -1.058673
  S    -6.105838 -3.024765  3.339399
  S    -6.144230  0.882245  3.093395
