16  
    
  C    -5.838316 -3.024339  1.566609
  C    -6.078101  0.821946  1.389240
  C    -6.965806 -3.497861  0.800124
  C    -7.251151  0.164452  0.827278
  N    -4.700695 -3.014889  0.896571
  N    -5.236047  1.319947  0.486731
  N    -6.686631 -3.552686 -0.515665
  N    -7.285107  0.137074 -0.517255
  N    -7.690190 -3.201800  3.277039
  N    -7.599605  0.280527  3.372753
  S    -8.379333 -3.555083  1.782076
  S    -8.371106 -0.348839  2.025165
  S    -5.073692 -3.306649 -0.628971
  S    -5.918878  0.893897 -0.951456
  S    -6.059964 -2.950064  3.218748
  S    -6.111498  0.916550  3.130379
