16  
    
  C     0.967718  0.256927  2.930215
  C     0.533981  3.577415  2.757239
  C    -0.274633 -0.129146  2.192281
  C    -0.645349  3.074420  2.075294
  N     1.941562  0.612001  2.062442
  N     1.626639  3.840252  1.974417
  N    -0.125708 -0.155614  0.865731
  N    -0.510828  3.273964  0.760598
  N    -0.769822 -0.152094  4.704215
  N    -1.244312  3.285605  4.607473
  S    -1.549692 -0.548464  3.283628
  S    -2.015466  2.799569  3.154887
  S     1.417884  0.365700  0.511286
  S     1.056688  3.569626  0.456509
  S     0.803885  0.346071  4.678267
  S     0.315175  3.641988  4.465458
