16  
    
  C     2.291270  0.809115  3.523984
  C     1.892530  5.146783  3.108187
  C     0.993951  0.569471  2.939547
  C     0.834519  4.488275  2.388694
  N     3.331230  0.857912  2.682679
  N     3.099702  5.212046  2.475610
  N     1.021844  0.468638  1.589894
  N     1.106880  4.432777  1.074307
  N     0.593491  0.979047  5.549330
  N     0.041196  4.768480  4.785103
  S    -0.251694  0.620531  4.119994
  S    -0.526959  4.140496  3.410981
  S     2.620985  0.660639  1.159497
  S     2.681000  4.896753  0.894324
  S     2.259623  1.149382  5.218250
  S     1.538288  5.272646  4.828341
