16  
    
  C    -0.163860 -0.177404  2.500139
  C    -0.398795  3.375562  2.513127
  C    -1.257656 -0.938751  1.796379
  C    -1.639544  3.035378  1.948134
  N     0.916633 -0.087512  1.740608
  N     0.579178  3.504867  1.638798
  N    -1.020736 -1.074394  0.514794
  N    -1.647477  2.810738  0.640063
  N    -1.943584 -0.643077  4.251045
  N    -1.992431  3.158816  4.588597
  S    -2.636649 -1.183245  2.846575
  S    -2.916593  2.995932  3.167517
  S     0.527027 -0.568923  0.176549
  S    -0.080023  3.151121  0.138528
  S    -0.388614  0.002734  4.176283
  S    -0.361707  3.408739  4.251279
