16  
    
  C    -5.750332 -2.572264  1.415248
  C    -5.550861  0.787826  1.495145
  C    -6.920816 -3.154544  0.747631
  C    -6.811425  0.463766  0.868941
  N    -4.686376 -2.459293  0.631380
  N    -4.500422  0.901013  0.721603
  N    -6.858988 -3.215523 -0.593770
  N    -6.639664  0.250689 -0.416556
  N    -7.627800 -2.931645  3.192487
  N    -7.414361  0.713391  3.335204
  S    -8.343389 -3.345077  1.680898
  S    -8.123874  0.262478  1.871959
  S    -5.289450 -2.808834 -0.954229
  S    -5.076121  0.597801 -0.821701
  S    -5.959901 -2.571968  3.176185
  S    -5.776401  1.063636  3.178001
