16  
    
  C    -4.962059 -2.647388  1.960401
  C    -5.361851  1.179826  1.691378
  C    -6.212314 -2.949586  1.309876
  C    -6.660446  0.844328  1.070263
  N    -3.925935 -2.645232  1.140119
  N    -4.289291  1.058142  0.904601
  N    -6.066130 -3.330923  0.032419
  N    -6.612191  0.712160 -0.251427
  N    -6.771376 -2.767466  3.779611
  N    -7.203708  0.991595  3.529165
  S    -7.621598 -2.837211  2.341079
  S    -8.025213  0.679892  2.128453
  S    -4.478014 -3.036554 -0.344342
  S    -4.940554  0.759600 -0.631513
  S    -5.175240 -2.141170  3.647071
  S    -5.541217  1.293938  3.389659
