16  
    
  C    -1.308493 -0.714532  1.894191
  C    -1.350647  3.386118  2.050511
  C    -2.614954 -1.239363  1.478042
  C    -2.519476  2.778716  1.426722
  N    -0.491646 -0.549840  0.864942
  N    -0.397510  3.699519  1.210270
  N    -2.733447 -1.529241  0.153550
  N    -2.376890  2.516867  0.157635
  N    -2.698065 -1.017163  4.074923
  N    -2.975684  2.828440  3.974886
  S    -3.674865 -1.478464  2.811071
  S    -3.697478  2.201217  2.610463
  S    -1.235847 -1.100505 -0.542502
  S    -0.933845  3.208678 -0.288873
  S    -1.208198 -0.372686  3.589216
  S    -1.523491  3.602133  3.750309
