16  
    
  C     1.580491  0.717087  2.851636
  C     0.823141  4.205148  2.442892
  C     0.348017  0.333677  2.211444
  C    -0.264628  3.391601  1.892801
  N     2.564206  0.850750  1.984603
  N     1.936231  4.265459  1.672508
  N     0.365394  0.264862  0.892551
  N    -0.144015  3.111532  0.599115
  N    -0.192711  0.377355  4.838487
  N    -0.864746  3.808528  4.379089
  S    -0.905931 -0.046059  3.360837
  S    -1.617015  3.119569  3.018834
  S     1.928733  0.643522  0.422793
  S     1.357274  3.654655  0.178960
  S     1.418666  0.869281  4.586572
  S     0.706911  4.179346  4.153387
