16  
    
  C    -4.217111 -1.955531  1.863971
  C    -4.167293  1.627237  1.842654
  C    -5.435488 -2.429902  1.230038
  C    -5.341240  0.912002  1.450120
  N    -3.239735 -1.829810  0.992098
  N    -3.169989  1.723256  0.949221
  N    -5.316311 -2.830207 -0.060305
  N    -5.338445  0.552169  0.158326
  N    -5.984739 -2.137871  3.773953
  N    -5.918727  1.787626  3.756527
  S    -6.785456 -2.297126  2.314587
  S    -6.651711  0.952882  2.538525
  S    -3.740887 -2.423433 -0.481220
  S    -3.809248  1.068646 -0.444250
  S    -4.523092 -1.476569  3.500142
  S    -4.278908  1.957476  3.563034
