16  
    
  C    -5.761369 -3.013205  1.518881
  C    -6.122153  0.940933  1.399473
  C    -6.936613 -3.428301  0.797166
  C    -7.297102  0.314421  0.899380
  N    -4.663077 -2.965624  0.766431
  N    -5.238583  1.334153  0.469821
  N    -6.747421 -3.582570 -0.504038
  N    -7.202209  0.120186 -0.415301
  N    -7.542682 -3.531043  3.340001
  N    -7.526339  0.179868  3.516083
  S    -8.340489 -3.761606  1.847435
  S    -8.327510 -0.402674  2.128870
  S    -5.121052 -3.319593 -0.820763
  S    -5.820598  0.810454 -0.961577
  S    -6.053915 -2.777725  3.257654
  S    -6.066337  0.967921  3.171662
