16  
    
  C    -3.536254 -2.525525  1.887984
  C    -3.668262  1.912844  1.856011
  C    -4.674107 -3.070513  1.206122
  C    -4.642298  1.026001  1.231654
  N    -2.424269 -2.402761  1.163840
  N    -2.720769  2.257374  1.011917
  N    -4.540945 -3.155617 -0.147106
  N    -4.381805  0.663464 -0.016696
  N    -5.468698 -2.545794  3.664072
  N    -5.381542  1.480695  3.674839
  S    -6.020775 -3.343701  2.335446
  S    -5.959968  0.590960  2.357321
  S    -2.939745 -2.722924 -0.416579
  S    -2.985311  1.472019 -0.442200
  S    -3.830877 -2.208342  3.581520
  S    -3.904295  2.256845  3.555409
