16  
    
  C     3.158993  1.638090  3.684678
  C     3.168481  5.198223  3.384844
  C     1.987140  1.084290  3.053021
  C     2.029930  4.704838  2.725827
  N     4.216824  1.772395  2.851672
  N     4.255289  5.273707  2.586944
  N     2.220693  0.774307  1.769217
  N     2.133311  4.470923  1.438567
  N     1.306357  1.583149  5.516967
  N     1.360705  4.774925  5.276354
  S     0.516031  1.124486  4.115483
  S     0.661231  4.403800  3.806499
  S     3.783184  1.271678  1.416255
  S     3.770546  4.811344  1.068350
  S     2.930752  1.912057  5.365537
  S     2.890287  5.304342  5.131597
