16  
    
  C     2.516603  1.060224  3.304283
  C     2.973666  5.487661  3.916393
  C     1.288493  0.618986  2.612367
  C     1.740784  4.993841  3.332428
  N     3.596259  1.206942  2.556554
  N     4.009326  5.403184  3.104657
  N     1.457995  0.399032  1.319825
  N     1.866463  4.522139  2.110709
  N     0.472176  1.173724  4.921308
  N     1.111754  5.744749  5.749884
  S    -0.156294  0.410128  3.620641
  S     0.394509  4.875853  4.479031
  S     3.032390  0.740743  0.941442
  S     3.430358  4.811938  1.580771
  S     2.156169  1.335240  4.984693
  S     2.772094  5.877996  5.649272
