16  
    
  C     1.790267  0.608858  3.012427
  C     1.946209  4.194514  3.379662
  C     0.498355  0.223404  2.422748
  C     0.665915  4.219413  2.669929
  N     2.760717  0.823487  2.145676
  N     2.965136  4.367051  2.515108
  N     0.605360  0.094734  1.123102
  N     0.741164  4.137267  1.295435
  N     0.134261  0.360602  5.047049
  N     0.195639  3.949375  5.216311
  S    -0.800464 -0.020595  3.576844
  S    -0.634632  3.726005  3.817848
  S     2.123997  0.473725  0.661935
  S     2.310985  4.406629  1.013344
  S     1.770084  0.446179  4.753511
  S     1.798556  4.277343  5.127347
