16  
    
  C     2.452595  1.089097  3.348936
  C     2.901047  5.480142  3.881063
  C     1.314016  0.630118  2.592566
  C     1.781676  4.695878  3.392894
  N     3.525165  1.177256  2.578265
  N     3.920736  5.559800  3.025295
  N     1.521672  0.388060  1.309647
  N     1.817815  4.381667  2.085589
  N     0.525567  1.036399  4.998983
  N     1.161845  5.430466  5.790072
  S    -0.065098  0.496581  3.565182
  S     0.418080  4.805181  4.404482
  S     3.129910  0.774083  1.054809
  S     3.367585  4.743027  1.678810
  S     2.100360  1.382069  5.048974
  S     2.805936  5.751919  5.565765
