16  
    
  C     2.969223  1.596031  3.468065
  C     2.943380  5.248005  3.199812
  C     1.812946  0.959394  2.951842
  C     1.810888  4.491095  2.705493
  N     3.867345  1.790320  2.495207
  N     3.820714  5.551565  2.262916
  N     1.800998  0.660035  1.667526
  N     1.784257  4.302756  1.398162
  N     1.145082  1.430019  5.375496
  N     1.327021  4.695630  5.274402
  S     0.486227  0.637691  4.013278
  S     0.522803  4.164167  3.875162
  S     3.284170  1.182339  1.115773
  S     3.272675  4.840255  0.832395
  S     2.724939  1.877859  5.168600
  S     2.745166  5.490562  4.953089
