16  
    
  C     0.719272 -0.305118  2.787649
  C     0.374126  3.527273  2.914014
  C    -0.606667 -0.355673  2.195532
  C    -0.902968  3.290331  2.252453
  N     1.697079 -0.100240  1.917616
  N     1.444963  3.781274  2.144519
  N    -0.608777 -0.355842  0.863510
  N    -0.799627  3.526802  0.954675
  N    -0.941103 -0.376119  4.773864
  N    -1.401302  3.113005  4.755995
  S    -1.805096 -0.649950  3.378050
  S    -2.198707  2.893228  3.351570
  S     1.001549 -0.106945  0.396637
  S     0.816231  3.847326  0.610202
  S     0.672896 -0.050911  4.530042
  S     0.266588  3.404311  4.642186
