16  
    
  C     1.474335  1.070637  3.204704
  C     1.814561  4.493064  3.359715
  C     0.259811  0.608782  2.527043
  C     0.521970  4.124760  2.806052
  N     2.499572  1.177912  2.402428
  N     2.794458  4.672151  2.448594
  N     0.437002  0.441075  1.216530
  N     0.651849  3.760513  1.562454
  N    -0.308307  0.898890  5.119714
  N     0.039470  4.552450  5.243098
  S    -1.013102  0.193420  3.641866
  S    -0.819235  4.277662  3.911024
  S     2.055262  0.766224  0.841040
  S     2.248311  4.018291  1.030059
  S     1.335149  1.241608  4.960131
  S     1.697137  4.855520  5.054904
