16  
    
  C     2.448201  1.089767  3.352822
  C     2.889253  5.478485  3.881119
  C     1.313732  0.632727  2.587472
  C     1.778313  4.686547  3.393143
  N     3.526832  1.182909  2.592127
  N     3.916647  5.556690  3.029141
  N     1.522534  0.383236  1.305330
  N     1.816193  4.371212  2.085297
  N     0.526247  1.028206  4.994083
  N     1.165081  5.419851  5.795950
  S    -0.061792  0.499246  3.569127
  S     0.416983  4.802726  4.402274
  S     3.133058  0.774728  1.058582
  S     3.367710  4.743328  1.675529
  S     2.101635  1.382591  5.046443
  S     2.809069  5.748760  5.560939
