16  
    
  C     3.304191  1.467197  3.427417
  C     3.212031  4.907502  3.572843
  C     1.984443  1.332244  2.881921
  C     1.895007  4.704266  2.935552
  N     4.250568  1.520033  2.483177
  N     4.161927  5.106223  2.666384
  N     1.982375  1.221520  1.549217
  N     1.927856  4.425495  1.630461
  N     1.711246  1.801787  5.410529
  N     1.409238  5.016273  5.382796
  S     0.710071  1.574660  4.059897
  S     0.579823  4.696963  3.975305
  S     3.577312  1.357782  1.051558
  S     3.512391  4.686437  1.171609
  S     3.374844  1.588912  5.165839
  S     3.067854  5.398344  5.222228
