16  
    
  C     1.383574  0.550895  2.982903
  C     0.932960  4.125310  2.534155
  C     0.192789  0.225121  2.244383
  C    -0.156365  3.436763  1.884165
  N     2.552796  0.442021  2.311477
  N     2.106702  4.217898  1.847554
  N     0.426020 -0.155366  0.966501
  N     0.017817  3.265986  0.577870
  N    -0.536580  0.737936  4.753199
  N    -0.992709  3.667798  4.301366
  S    -1.185832  0.328897  3.247665
  S    -1.629475  3.228198  2.859177
  S     2.068227 -0.030276  0.775473
  S     1.585240  3.810722  0.259094
  S     1.142644  0.972182  4.642747
  S     0.609916  4.102495  4.258697
