16  
    
  C     0.862985  0.414530  2.973917
  C     0.516408  3.722584  2.941887
  C    -0.370344 -0.053705  2.348630
  C    -0.820539  3.452212  2.389237
  N     1.933765  0.375725  2.185864
  N     1.497600  3.724001  2.038578
  N    -0.276681 -0.197710  1.045487
  N    -0.843723  3.560722  1.061847
  N    -0.892536  0.275691  4.781295
  N    -1.051609  3.596744  4.968721
  S    -1.716907 -0.147098  3.400669
  S    -2.041185  3.288336  3.590825
  S     1.332957 -0.006459  0.689104
  S     0.754729  3.671419  0.564347
  S     0.701789  0.655243  4.607980
  S     0.517150  3.821580  4.656146
