16  
    
  C    -0.501954 -0.598346  2.670880
  C    -0.431677  3.430139  2.725681
  C    -1.765429 -1.105568  2.170193
  C    -1.377276  2.493777  2.082541
  N     0.416053 -0.427672  1.756112
  N     0.647336  3.598471  1.950419
  N    -1.688013 -1.391378  0.891704
  N    -1.154586  2.214157  0.783020
  N    -2.184058 -0.835825  4.664210
  N    -2.262156  3.073713  4.488268
  S    -3.116408 -1.036330  3.309267
  S    -2.804524  2.306239  3.057462
  S    -0.258221 -0.897496  0.329335
  S     0.357882  2.828626  0.478957
  S    -0.563292 -0.367394  4.416722
  S    -0.725645  3.720410  4.419992
