16  
    
  C    -4.190690 -2.099303  1.727607
  C    -4.239486  1.623149  1.870191
  C    -5.478965 -2.360627  1.154238
  C    -5.418758  0.914026  1.347377
  N    -3.154184 -2.130073  0.919021
  N    -3.202417  1.644222  1.026506
  N    -5.376679 -2.788646 -0.109854
  N    -5.306070  0.557169  0.058270
  N    -5.996189 -1.957400  3.608093
  N    -6.017961  1.647299  3.799663
  S    -6.804421 -2.534917  2.191700
  S    -6.743011  0.945472  2.429897
  S    -3.783363 -2.596388 -0.552055
  S    -3.680162  1.024764 -0.427466
  S    -4.362507 -1.584719  3.396817
  S    -4.388298  2.187268  3.552625
