16  
    
  C    -0.233029 -0.454018  2.678451
  C     0.108995  3.306895  2.491257
  C    -1.302710 -0.940914  1.908803
  C    -1.172721  2.984534  1.752139
  N     0.876766 -0.200476  1.966776
  N     1.157239  3.550483  1.702549
  N    -1.126157 -0.964952  0.586167
  N    -0.921104  2.775696  0.466421
  N    -2.089615 -0.785677  4.404789
  N    -1.704142  2.974199  4.250344
  S    -2.621046 -1.404674  2.935984
  S    -2.390876  2.325478  2.858718
  S     0.506584 -0.524516  0.352219
  S     0.597923  3.320312  0.146890
  S    -0.468031 -0.330151  4.439094
  S    -0.178994  3.497875  4.153148
