16  
    
  C     2.447745  1.045918  3.273614
  C     2.938293  5.533543  3.893758
  C     1.262954  0.604883  2.599224
  C     1.733548  4.926696  3.333852
  N     3.534076  1.194919  2.523646
  N     4.036098  5.337381  3.141052
  N     1.458657  0.372720  1.310638
  N     1.848173  4.561188  2.048069
  N     0.540015  1.194231  4.919096
  N     1.099861  5.798988  5.762955
  S    -0.127758  0.398890  3.633825
  S     0.395495  4.915747  4.483361
  S     3.035742  0.751257  0.971941
  S     3.425972  4.838298  1.602437
  S     2.152607  1.319633  4.953665
  S     2.796346  5.895859  5.631648
