16  
    
  C     1.512356  0.884993  3.416037
  C     1.260518  4.703599  3.260480
  C     0.232311  0.514171  2.859089
  C     0.021082  4.100402  2.777831
  N     2.546284  0.835111  2.590328
  N     2.195561  4.826178  2.324098
  N     0.241842  0.160131  1.577145
  N    -0.106413  3.979965  1.451960
  N    -0.264185  0.935179  5.418501
  N    -0.169834  4.268279  5.402434
  S    -1.079876  0.449447  4.007949
  S    -1.118604  4.052050  4.047232
  S     1.814399  0.350303  1.106530
  S     1.442269  4.317570  0.876793
  S     1.338906  1.249446  5.096894
  S     1.441715  4.653041  5.003963
