16  
    
  C    -2.851027 -1.564099  2.047021
  C    -2.330759  1.939676  2.109048
  C    -4.069797 -2.072106  1.465103
  C    -3.670389  1.907918  1.487280
  N    -1.868646 -1.393629  1.142553
  N    -1.349933  1.953986  1.185002
  N    -4.074867 -2.062143  0.092444
  N    -3.648057  1.700195  0.163046
  N    -4.375962 -2.010899  4.056821
  N    -4.060848  2.268262  3.951476
  S    -5.276896 -2.293446  2.721480
  S    -5.011134  2.051027  2.628414
  S    -2.489300 -1.746009 -0.345585
  S    -2.027196  1.848145 -0.284830
  S    -2.814205 -1.521634  3.785324
  S    -2.447865  2.349565  3.749514
