16  
    
  C     0.974476  0.228701  2.913075
  C     0.552054  3.463700  2.812249
  C    -0.189120 -0.136941  2.225576
  C    -0.662442  3.161704  2.050323
  N     1.960590  0.613164  2.163899
  N     1.530337  3.956557  2.088314
  N    -0.080192 -0.130754  0.907514
  N    -0.520948  3.102841  0.709003
  N    -0.764815 -0.202004  4.699950
  N    -1.331139  3.243335  4.533176
  S    -1.520460 -0.501779  3.239204
  S    -1.973890  2.773551  3.125081
  S     1.428262  0.386010  0.577063
  S     1.127120  3.572720  0.492775
  S     0.815205  0.294002  4.638418
  S     0.283275  3.695981  4.499357
