16  
    
  C    -3.093007 -1.522868  2.257336
  C    -3.310232  1.908242  2.009574
  C    -4.305677 -1.931295  1.618432
  C    -4.597088  1.528459  1.439826
  N    -2.004878 -1.399286  1.468377
  N    -2.362385  2.242021  1.144500
  N    -4.129893 -2.062845  0.315066
  N    -4.486337  1.337320  0.116996
  N    -4.878189 -1.606435  4.132755
  N    -4.937120  1.484134  3.954978
  S    -5.652710 -1.758947  2.706840
  S    -5.786415  1.070890  2.581498
  S    -2.561307 -1.644470 -0.046738
  S    -2.978317  1.782968 -0.316308
  S    -3.228781 -1.466482  3.985823
  S    -3.304438  1.865075  3.731325
