16  
    
  C    -5.356290 -2.463960  1.413474
  C    -5.357718  1.180857  1.304431
  C    -6.570742 -2.916048  0.810322
  C    -6.567880  0.679567  0.655095
  N    -4.415689 -2.241965  0.522680
  N    -4.388168  1.462685  0.464761
  N    -6.570691 -2.966451 -0.514801
  N    -6.393879  0.454347 -0.637899
  N    -7.023753 -2.777815  3.345766
  N    -7.172258  0.783762  3.158277
  S    -7.833065 -3.121177  1.949711
  S    -7.799979  0.073657  1.773511
  S    -5.083564 -2.502477 -0.951171
  S    -4.875065  0.994192 -1.032056
  S    -5.506253 -2.229928  3.116498
  S    -5.551341  1.192755  2.996938
