16  
    
  C     2.496389  1.105822  3.303941
  C     2.980960  5.315390  3.808802
  C     1.377285  0.593433  2.579872
  C     1.672308  5.140665  3.242597
  N     3.536019  1.307133  2.539998
  N     3.974109  5.184995  2.936615
  N     1.522281  0.373122  1.275225
  N     1.637876  4.701210  1.978215
  N     0.714737  0.680264  5.086451
  N     1.305629  5.517373  5.756669
  S     0.046027  0.274643  3.586466
  S     0.425675  5.420329  4.388499
  S     3.076021  0.861318  0.991592
  S     3.211150  4.649024  1.484542
  S     2.226572  1.328509  5.013399
  S     2.934061  5.716931  5.525131
