16  
    
  C    -0.903346 -0.691858  2.332852
  C    -0.792859  3.128270  2.438080
  C    -1.951831 -1.384135  1.681622
  C    -2.069025  2.670954  1.830933
  N     0.175803 -0.560936  1.591438
  N     0.203496  3.227520  1.573930
  N    -1.720268 -1.626852  0.374778
  N    -1.982459  2.480190  0.535858
  N    -2.736637 -0.827023  4.116762
  N    -2.433542  2.826072  4.342575
  S    -3.309281 -1.585589  2.719789
  S    -3.382774  2.619989  3.026794
  S    -0.175437 -1.174516  0.120932
  S    -0.428896  2.882466  0.073762
  S    -1.084440 -0.571240  4.117771
  S    -0.887598  3.302318  4.148556
