16  
    
  C     0.707984 -0.249289  2.748008
  C     0.341985  3.575786  2.915270
  C    -0.602190 -0.444240  2.157426
  C    -0.837668  3.180373  2.243045
  N     1.708071 -0.073704  1.899789
  N     1.392810  3.834263  2.168142
  N    -0.613927 -0.398798  0.823851
  N    -0.827064  3.523111  0.943647
  N    -0.999639 -0.412531  4.792195
  N    -1.410209  3.121448  4.729555
  S    -1.846254 -0.648819  3.408177
  S    -2.222350  2.872345  3.335509
  S     0.991821 -0.109534  0.388203
  S     0.839880  3.799005  0.592724
  S     0.612114 -0.049708  4.539319
  S     0.227753  3.408251  4.612966
