16  
    
  C    -5.322788 -2.455808  1.437727
  C    -5.370981  1.144289  1.319863
  C    -6.543864 -2.980393  0.867932
  C    -6.539521  0.513972  0.667536
  N    -4.364504 -2.106078  0.569608
  N    -4.351025  1.428944  0.528956
  N    -6.563422 -2.931596 -0.437229
  N    -6.422127  0.417149 -0.651618
  N    -7.130441 -2.626605  3.370959
  N    -7.138574  0.901704  3.179294
  S    -7.940998 -3.039279  1.956343
  S    -7.815943  0.139066  1.784000
  S    -5.049123 -2.398957 -0.956834
  S    -4.879012  0.972832 -1.025624
  S    -5.482374 -2.171234  3.182776
  S    -5.490508  1.255912  3.084346
