16  
    
  C    -5.314457 -2.688439  1.364014
  C    -5.442259  1.007932  1.292678
  C    -6.458039 -3.379659  0.829970
  C    -6.600666  0.498324  0.584345
  N    -4.391793 -2.482690  0.439164
  N    -4.433873  1.448295  0.511054
  N    -6.459636 -3.465111 -0.513334
  N    -6.430282  0.432970 -0.736912
  N    -6.959309 -3.001872  3.356194
  N    -7.295819  0.514968  3.127923
  S    -7.734204 -3.545923  1.955724
  S    -7.908756  0.127132  1.642308
  S    -5.070832 -2.818106 -1.016057
  S    -4.939242  1.138749 -1.029954
  S    -5.321780 -2.610973  3.136792
  S    -5.716265  1.145469  2.987360
