16  
    
  C     0.841448  0.400524  2.983003
  C     0.559680  3.745032  2.966258
  C    -0.389131  0.044908  2.331203
  C    -0.763836  3.587860  2.417910
  N     1.897823  0.411541  2.181872
  N     1.520343  3.856887  2.041202
  N    -0.307814 -0.194000  0.990414
  N    -0.780972  3.254525  1.107796
  N    -0.967382  0.268211  4.919514
  N    -1.091184  3.698887  4.968266
  S    -1.762872  0.011146  3.471177
  S    -1.994645  3.291079  3.579972
  S     1.325151  0.069816  0.634610
  S     0.845531  3.428122  0.563947
  S     0.639624  0.722714  4.764804
  S     0.480657  4.054640  4.678019
