16  
    
  C    -2.300626 -1.140002  2.128416
  C    -2.740362  2.656098  2.288189
  C    -3.395237 -1.829647  1.550650
  C    -3.836632  1.928350  1.721579
  N    -1.375096 -0.700818  1.279221
  N    -1.728569  2.943480  1.467970
  N    -3.319063 -1.892766  0.232753
  N    -3.725078  1.746229  0.432221
  N    -4.087295 -1.566299  3.962789
  N    -4.402492  2.155281  4.236004
  S    -4.672442 -2.304271  2.548749
  S    -5.066015  1.442511  2.884237
  S    -1.871343 -1.205129 -0.216643
  S    -2.273174  2.418827 -0.028131
  S    -2.526226 -0.955552  3.897860
  S    -2.890821  2.828826  4.035583
