16  
    
  C     2.506432  1.018965  3.282760
  C     2.444341  4.775141  3.426003
  C     1.267450  0.795016  2.574911
  C     1.323833  4.155737  2.715714
  N     3.535384  1.301238  2.504183
  N     3.529600  5.019328  2.696023
  N     1.429961  0.956073  1.254707
  N     1.515450  4.154131  1.393212
  N     0.651034  0.679463  5.025018
  N     0.556412  4.331599  5.243772
  S    -0.103544  0.287101  3.596560
  S    -0.160106  3.937016  3.721817
  S     3.055049  1.284099  0.968192
  S     3.028867  4.809068  1.130697
  S     2.265947  1.005646  4.983263
  S     2.177253  4.872546  5.156277
