16  
    
  C    -5.333927 -2.927503  1.449280
  C    -5.493127  1.151033  1.302225
  C    -6.501728 -3.440681  0.840283
  C    -6.639322  0.551928  0.604267
  N    -4.368770 -2.574112  0.591854
  N    -4.446851  1.434130  0.548317
  N    -6.454543 -3.424210 -0.475141
  N    -6.523724  0.461867 -0.705268
  N    -7.056309 -2.894785  3.331723
  N    -7.332563  0.669412  3.059442
  S    -7.797698 -3.610767  2.025526
  S    -7.954719  0.012602  1.672330
  S    -4.961247 -2.865367 -0.875561
  S    -4.959942  1.008465 -1.005910
  S    -5.434857 -2.693266  3.130403
  S    -5.695748  1.108304  3.056066
