16  
    
  C    -4.197635 -2.316902  1.628878
  C    -4.328207  1.749007  1.922043
  C    -5.405210 -2.750510  1.036017
  C    -5.480581  1.089986  1.272312
  N    -3.166905 -2.313597  0.753555
  N    -3.209057  1.717002  1.202480
  N    -5.341397 -3.081550 -0.235569
  N    -5.188119  0.701691  0.033597
  N    -5.977243 -2.220641  3.512365
  N    -6.074779  1.489883  3.673415
  S    -6.789334 -2.730083  2.159920
  S    -6.835337  0.987874  2.258424
  S    -3.802446 -2.803094 -0.720929
  S    -3.624835  0.983467 -0.255102
  S    -4.305463 -1.899498  3.327317
  S    -4.507419  2.136596  3.621895
