16  
    
  C     1.074409  0.315006  3.032053
  C     0.482046  3.700337  2.983526
  C    -0.103270 -0.107811  2.279298
  C    -0.448808  3.041496  2.177945
  N     2.163299  0.475972  2.266182
  N     1.470577  4.237255  2.256350
  N     0.046120 -0.126831  0.929149
  N    -0.175102  3.020375  0.858383
  N    -0.800156 -0.137570  4.795087
  N    -1.454330  3.172829  4.554230
  S    -1.487217 -0.301208  3.272777
  S    -1.885796  2.530271  3.043933
  S     1.682253  0.208326  0.725649
  S     1.308355  3.700811  0.733871
  S     0.836580  0.257576  4.743340
  S     0.039861  3.777342  4.669193
