16  
    
  C    -1.901169 -1.020038  2.367104
  C    -1.859543  2.329060  2.631518
  C    -3.093190 -1.587080  1.781405
  C    -3.039967  1.942034  1.949181
  N    -0.827664 -0.884750  1.586683
  N    -0.898213  2.765611  1.816769
  N    -2.985341 -1.737397  0.476960
  N    -2.970238  1.886573  0.608808
  N    -3.581503 -1.139070  4.281506
  N    -3.722285  2.084138  4.401180
  S    -4.415402 -1.563688  2.925017
  S    -4.501183  1.939019  2.928812
  S    -1.419325 -1.229329  0.049865
  S    -1.401494  2.424655  0.270827
  S    -1.969604 -0.889730  4.128984
  S    -2.088137  2.416591  4.327138
