16  
    
  C     0.031877 -0.773602  2.567400
  C    -0.288054  3.133068  2.590102
  C    -1.265562 -1.164603  1.949794
  C    -1.499946  2.683184  2.076564
  N     0.976946 -0.488915  1.650354
  N     0.690855  3.292975  1.728967
  N    -1.175116 -1.493116  0.628350
  N    -1.440309  2.431197  0.773663
  N    -1.719652 -0.688613  4.463330
  N    -1.857355  2.915397  4.593554
  S    -2.512026 -1.153003  3.103142
  S    -2.777521  2.429377  3.295571
  S     0.378357 -0.972392  0.210396
  S     0.051732  3.001095  0.260826
  S    -0.085869 -0.353850  4.222951
  S    -0.325242  3.313419  4.283076
