16  
    
  C     2.507642  1.122723  3.293612
  C     3.000110  5.287130  3.860117
  C     1.367951  0.541740  2.597914
  C     1.684008  5.182622  3.248480
  N     3.597768  1.323941  2.536017
  N     3.971188  5.158497  2.949528
  N     1.502659  0.318166  1.302775
  N     1.669875  4.620178  2.040709
  N     0.650411  0.681726  5.085439
  N     1.277725  5.583695  5.767467
  S     0.028782  0.318326  3.579508
  S     0.427716  5.382129  4.410519
  S     3.029526  0.799217  0.947510
  S     3.254390  4.708033  1.467395
  S     2.205785  1.340652  4.980334
  S     2.897391  5.787394  5.569616
