16  
    
  C     2.737625  1.364139  3.661313
  C     2.955898  5.133273  3.579095
  C     1.533274  0.845193  3.083706
  C     1.738043  4.912693  2.849185
  N     3.711793  1.605329  2.781089
  N     3.983662  5.558646  2.818568
  N     1.635182  0.679330  1.782108
  N     1.919717  4.871164  1.515194
  N     1.041486  1.339828  5.522375
  N     1.075059  4.804294  5.396007
  S     0.203200  0.733875  4.221665
  S     0.314599  4.651355  3.935340
  S     3.172098  1.192462  1.362195
  S     3.527434  5.243841  1.240688
  S     2.682817  1.561109  5.329011
  S     2.677071  5.356019  5.283989
