16  
    
  C     0.663252 -0.158747  2.763981
  C     0.334211  3.557832  2.937749
  C    -0.588482 -0.542048  2.152498
  C    -0.862271  3.167966  2.201277
  N     1.693834 -0.034921  1.881661
  N     1.350491  3.911607  2.160770
  N    -0.598288 -0.450525  0.803094
  N    -0.803229  3.451498  0.907415
  N    -1.035643 -0.447542  4.793798
  N    -1.403644  3.124767  4.731356
  S    -1.911078 -0.649433  3.417862
  S    -2.231186  2.847940  3.290000
  S     0.977364 -0.119118  0.373381
  S     0.839452  3.747666  0.581444
  S     0.550343 -0.047400  4.536715
  S     0.178882  3.420679  4.605803
