16  
    
  C    -1.010416 -0.632819  2.382015
  C    -1.196524  3.085465  2.347615
  C    -2.217902 -1.003805  1.693582
  C    -2.441168  2.793906  1.697230
  N    -0.063939 -0.234350  1.538258
  N    -0.163519  3.014348  1.530649
  N    -2.086354 -1.107105  0.370302
  N    -2.421968  2.652846  0.361489
  N    -2.875972 -0.903839  4.142211
  N    -2.942183  3.202803  4.270466
  S    -3.601224 -1.435858  2.785412
  S    -3.799747  2.915292  2.837957
  S    -0.619519 -0.498112  0.020226
  S    -0.774206  2.707901 -0.002294
  S    -1.341197 -0.313962  4.049222
  S    -1.259482  3.247085  4.068169
