16  
    
  C    -4.731099 -2.404391  1.522433
  C    -4.387336  0.904248  1.784500
  C    -5.941845 -2.798473  0.791638
  C    -5.651059  0.677131  1.122364
  N    -3.738387 -2.105280  0.709701
  N    -3.423388  1.361312  0.964783
  N    -5.857020 -2.764801 -0.513933
  N    -5.558267  0.771790 -0.197217
  N    -6.410466 -2.838266  3.310881
  N    -6.152479  0.646956  3.569226
  S    -7.252383 -3.079743  1.896461
  S    -7.081011  0.451115  2.212718
  S    -4.290264 -2.320717 -0.867331
  S    -4.116415  1.295732 -0.552032
  S    -4.818623 -2.347325  3.281933
  S    -4.602822  1.085559  3.479592
