16  
    
  C    -0.028880  0.059112  2.615809
  C    -0.005034  3.573544  2.565342
  C    -1.222417 -0.586476  2.114543
  C    -1.147425  2.992109  1.944354
  N     0.951468  0.222850  1.714850
  N     1.003093  3.838037  1.744679
  N    -1.196133 -0.688086  0.786035
  N    -0.980283  2.617736  0.652105
  N    -1.617973 -0.422225  4.650631
  N    -1.787577  3.425144  4.407675
  S    -2.477128 -0.845620  3.315279
  S    -2.410321  2.651122  3.086069
  S     0.325913 -0.218817  0.186002
  S     0.543077  3.175164  0.284786
  S    -0.149440  0.310222  4.330324
  S    -0.253207  4.090535  4.258719
