16  
    
  C     2.319308  0.885778  3.539283
  C     2.025418  5.050657  3.181403
  C     1.025199  0.585739  2.971907
  C     0.882053  4.563955  2.402912
  N     3.300135  0.932330  2.650435
  N     3.142864  5.229741  2.489316
  N     0.973998  0.402489  1.675468
  N     1.066359  4.451450  1.099776
  N     0.605729  0.907430  5.453002
  N     0.013731  4.694071  4.858005
  S    -0.260912  0.665104  4.098621
  S    -0.540703  4.146580  3.373216
  S     2.600389  0.659109  1.154717
  S     2.660164  4.910194  0.901906
  S     2.244319  1.146289  5.228638
  S     1.557066  5.268027  4.799178
