16  
    
  C     1.587086  0.818350  3.269969
  C     2.031584  4.617127  3.270594
  C     0.544709  0.180560  2.508547
  C     0.865748  3.976931  2.692685
  N     2.628642  1.199447  2.526610
  N     3.074138  4.633763  2.395319
  N     0.864796  0.052492  1.200580
  N     0.912708  3.972201  1.326294
  N    -0.213487  0.397197  4.986625
  N     0.255532  4.294112  5.211421
  S    -0.870251 -0.097010  3.500828
  S    -0.512634  3.736089  3.857217
  S     2.379159  0.723565  0.965194
  S     2.459152  4.306528  0.916003
  S     1.265608  1.006466  4.971544
  S     1.846521  4.941424  4.940960
