16  
    
  C    -1.544393 -0.961157  2.197459
  C    -1.793079  2.499098  2.025308
  C    -2.798556 -1.322505  1.675452
  C    -3.057149  2.086262  1.468534
  N    -0.480440 -1.044241  1.359245
  N    -0.781986  2.616120  1.185504
  N    -2.730063 -1.584581  0.363189
  N    -2.953564  1.845073  0.187628
  N    -3.181894 -0.981505  4.186888
  N    -3.438893  2.107446  4.017476
  S    -4.089801 -1.210054  2.816443
  S    -4.347103  1.868052  2.650889
  S    -1.143298 -1.451056 -0.067163
  S    -1.394949  2.137032 -0.280488
  S    -1.560631 -0.954498  3.933815
  S    -1.869423  2.585428  3.786499
