16  
    
  C    -1.898531 -1.036590  2.373254
  C    -1.866053  2.343160  2.619778
  C    -3.090361 -1.571815  1.795322
  C    -3.058410  1.926291  1.941040
  N    -0.815985 -0.884806  1.589442
  N    -0.891734  2.750572  1.815986
  N    -2.976291 -1.732440  0.488721
  N    -2.972317  1.902373  0.609459
  N    -3.580840 -1.140568  4.281329
  N    -3.718108  2.086533  4.402812
  S    -4.420481 -1.577241  2.917624
  S    -4.492696  1.947251  2.928567
  S    -1.418738 -1.228812  0.059467
  S    -1.404802  2.431197  0.263672
  S    -1.966305 -0.889951  4.128547
  S    -2.089607  2.418448  4.324551
