16  
    
  C    -3.121029 -1.661141  1.830814
  C    -3.545445  1.560263  2.100205
  C    -4.268819 -2.409120  1.319731
  C    -4.754596  1.168125  1.339019
  N    -2.084418 -1.589739  0.986547
  N    -2.402824  1.694804  1.402183
  N    -4.240118 -2.634367  0.018985
  N    -4.447810  0.757309  0.098322
  N    -4.711405 -2.039404  3.831068
  N    -5.453598  1.408926  3.896823
  S    -5.558118 -2.598541  2.493810
  S    -6.132382  1.055730  2.375773
  S    -2.705964 -2.209516 -0.428341
  S    -2.837471  1.172039 -0.170098
  S    -3.195096 -1.477760  3.523337
  S    -3.816499  1.920496  3.809571
