16  
    
  C     1.754099  0.510649  3.200999
  C     1.999768  4.513396  3.278141
  C     0.626027  0.131574  2.434274
  C     0.783930  4.111527  2.641143
  N     2.873282  0.840169  2.481158
  N     2.964220  4.952320  2.466743
  N     0.824478  0.234583  1.113519
  N     0.936089  3.902098  1.317154
  N    -0.106174  0.070481  4.975682
  N     0.330925  4.008993  5.178107
  S    -0.732180 -0.304314  3.449550
  S    -0.452858  3.694559  3.832683
  S     2.380249  0.696776  0.904655
  S     2.371390  4.570313  0.961482
  S     1.428613  0.622262  4.897484
  S     1.901826  4.534048  5.065186
