16  
    
  C     1.394707  0.488861  3.012946
  C     0.952208  4.041309  2.580536
  C     0.202885  0.148740  2.258931
  C    -0.151024  3.442942  1.875910
  N     2.506084  0.340411  2.306590
  N     2.005255  4.269122  1.815781
  N     0.424917 -0.110576  0.968575
  N     0.139713  3.245961  0.597572
  N    -0.602992  0.671044  4.754990
  N    -0.958388  3.699724  4.320596
  S    -1.274501  0.335851  3.246161
  S    -1.604117  3.242720  2.792378
  S     2.063977 -0.041556  0.771243
  S     1.633326  3.820360  0.292538
  S     1.062417  0.924846  4.726273
  S     0.602227  4.187763  4.280466
