16  
    
  C     2.513052  1.102857  3.252694
  C     2.479924  4.724274  3.495933
  C     1.302486  0.817764  2.513915
  C     1.352060  4.200975  2.777958
  N     3.610959  1.293362  2.479358
  N     3.521067  5.004402  2.700385
  N     1.462354  0.911013  1.197509
  N     1.526877  4.281301  1.464938
  N     0.602433  0.753046  5.038867
  N     0.595335  4.398380  5.166616
  S    -0.043557  0.262930  3.544125
  S    -0.095411  3.932617  3.744857
  S     3.041550  1.185779  0.893481
  S     3.065532  4.780488  1.091608
  S     2.329350  0.971497  5.004437
  S     2.112150  4.915097  5.226272
