16  
    
  C     1.562641  0.712005  2.871392
  C     0.840297  4.159620  2.473171
  C     0.322038  0.369716  2.269081
  C    -0.292245  3.427352  1.885840
  N     2.537829  0.900222  1.968146
  N     1.832125  4.286601  1.619422
  N     0.371183  0.280287  0.916772
  N    -0.085163  3.149978  0.597609
  N    -0.147067  0.311555  4.803691
  N    -0.858151  3.797980  4.343163
  S    -0.969507 -0.043155  3.335911
  S    -1.601423  3.120783  3.006207
  S     1.908525  0.669787  0.463719
  S     1.409867  3.663742  0.182065
  S     1.418866  0.839693  4.604834
  S     0.691330  4.218582  4.204135
