16  
    
  C     0.718303  0.312890  3.074137
  C     0.592021  3.947068  2.949989
  C    -0.561978  0.228681  2.420513
  C    -0.559905  3.324934  2.369140
  N     1.784145  0.424126  2.247619
  N     1.643368  3.989070  2.166772
  N    -0.498656 -0.024959  1.124171
  N    -0.390272  2.813090  1.190832
  N    -1.095122  0.252539  5.006858
  N    -1.129369  3.995139  4.821996
  S    -1.935163  0.294731  3.576013
  S    -1.830248  3.245946  3.483780
  S     1.126516  0.137393  0.723305
  S     1.135413  3.362484  0.672076
  S     0.540352  0.487267  4.818522
  S     0.426614  4.382848  4.672439
