16  
    
  C    -3.280752 -2.205098  1.899845
  C    -3.777774  1.971926  1.948926
  C    -4.471469 -2.681105  1.269729
  C    -4.664253  1.003616  1.312656
  N    -2.240537 -1.976157  1.099801
  N    -2.719486  2.318708  1.232219
  N    -4.248593 -2.986322  0.026199
  N    -4.378516  0.771781  0.034969
  N    -5.117814 -2.292167  3.709728
  N    -5.623126  1.445633  3.664137
  S    -5.814094 -2.901229  2.294536
  S    -6.014646  0.609527  2.345248
  S    -2.715403 -2.523808 -0.360085
  S    -2.982172  1.617508 -0.280765
  S    -3.617013 -1.613991  3.501148
  S    -4.200021  2.230580  3.612287
