16  
    
  C     2.752276  1.359973  3.683923
  C     2.986462  5.252391  3.640059
  C     1.516087  1.062583  2.978813
  C     1.712547  4.915823  2.972865
  N     3.840532  1.540122  2.943028
  N     4.030167  5.236108  2.788627
  N     1.642203  0.992265  1.676114
  N     1.784060  4.939347  1.642280
  N     0.971950  0.716806  5.417944
  N     1.101656  4.992708  5.459079
  S     0.167423  0.617899  3.945547
  S     0.292315  5.023408  3.991367
  S     3.249912  1.236771  1.315725
  S     3.422857  4.928447  1.270128
  S     2.546620  1.296875  5.402279
  S     2.766745  5.236424  5.383660
