16  
    
  C    -3.725095 -2.378394  1.701194
  C    -3.415904  1.789523  1.669156
  C    -4.977503 -2.702128  1.044145
  C    -4.556687  1.196380  1.053362
  N    -2.691748 -2.206035  0.902035
  N    -2.408877  1.877100  0.825300
  N    -4.836550 -2.719847 -0.293180
  N    -4.417370  0.865713 -0.200186
  N    -5.464018 -2.865602  3.587537
  N    -5.109356  1.476940  3.489830
  S    -6.357576 -2.823844  2.136199
  S    -5.831926  0.803341  2.180252
  S    -3.257538 -2.434847 -0.639430
  S    -2.863955  1.265080 -0.559532
  S    -3.824190 -2.645545  3.426115
  S    -3.593095  2.089511  3.295286
