16  
    
  C    -4.663232 -2.328923  1.509296
  C    -4.459921  1.299607  1.877584
  C    -5.838045 -2.784519  0.754993
  C    -5.664191  0.879000  1.227246
  N    -3.637375 -1.934944  0.767120
  N    -3.503716  1.738868  1.035492
  N    -5.668565 -2.659761 -0.531093
  N    -5.486758  0.762447 -0.081697
  N    -6.406163 -2.921172  3.234771
  N    -6.100641  0.762266  3.781877
  S    -7.143474 -3.206711  1.790760
  S    -6.838166  0.280272  2.426729
  S    -4.158531 -2.120863 -0.821433
  S    -4.026655  1.351229 -0.541314
  S    -4.889252 -2.306456  3.221859
  S    -4.513738  1.163761  3.728120
