16  
    
  C    -0.922058 -0.796350  2.293161
  C    -0.695390  3.079883  2.472582
  C    -1.959491 -1.512640  1.651186
  C    -1.923756  2.529446  1.874195
  N     0.121330 -0.636728  1.520571
  N     0.261402  3.200901  1.543142
  N    -1.802304 -1.919944  0.424125
  N    -1.900296  2.480021  0.536338
  N    -2.743058 -0.941510  4.096026
  N    -2.407209  2.725574  4.321453
  S    -3.434275 -1.480626  2.629260
  S    -3.283687  2.509108  2.988968
  S    -0.273262 -1.262952  0.036261
  S    -0.353455  2.763702  0.077901
  S    -1.227446 -0.292381  3.961932
  S    -0.866047  3.231384  4.197950
