16  
    
  C    -2.134291 -0.903334  2.324260
  C    -2.013174  2.265088  1.978387
  C    -3.369241 -1.300931  1.688490
  C    -3.270139  2.023528  1.369131
  N    -1.076023 -0.893274  1.484470
  N    -0.989374  2.413044  1.140452
  N    -3.293442 -1.400482  0.328802
  N    -3.170749  1.735358  0.068899
  N    -3.869433 -1.163616  4.124766
  N    -3.807936  2.379848  3.844223
  S    -4.728379 -1.218624  2.738258
  S    -4.590022  1.831085  2.482014
  S    -1.683961 -1.292609 -0.001299
  S    -1.609782  2.131027 -0.338811
  S    -2.289952 -0.643343  3.995985
  S    -2.148721  2.499634  3.731798
