16  
    
  C    -4.669653 -2.454796  1.558549
  C    -4.706384  1.012269  1.428872
  C    -5.969995 -2.902185  1.055125
  C    -5.937096  0.702564  0.732019
  N    -3.718518 -2.485554  0.661701
  N    -3.655473  1.072234  0.626901
  N    -5.989626 -3.182542 -0.241414
  N    -5.762198  0.663571 -0.612973
  N    -6.368143 -2.613893  3.565799
  N    -6.628881  0.901225  3.276173
  S    -7.273804 -3.028948  2.205482
  S    -7.306478  0.430540  1.821234
  S    -4.432381 -2.961333 -0.776958
  S    -4.217225  0.936060 -0.925242
  S    -4.694856 -2.414544  3.261784
  S    -4.910082  1.160030  3.185510
