16  
    
  C     1.495995  0.698471  2.904894
  C     0.861158  3.858156  2.545227
  C     0.256942  0.250303  2.291202
  C    -0.313273  3.588537  1.836952
  N     2.586758  0.622731  2.135868
  N     1.903719  4.177874  1.765570
  N     0.474690 -0.160222  1.025961
  N    -0.057614  3.368609  0.540096
  N    -0.332970  0.788317  4.621513
  N    -0.894068  3.671246  4.355459
  S    -1.148587  0.298387  3.282718
  S    -1.627282  3.168017  2.881955
  S     2.077805  0.006024  0.726713
  S     1.513857  3.734548  0.250082
  S     1.271406  1.068620  4.585636
  S     0.693490  4.052236  4.311053
