16  
    
  C    -2.940387 -1.811143  1.973238
  C    -3.402345  1.559848  2.058575
  C    -4.206034 -2.246963  1.496078
  C    -4.662780  1.247651  1.471031
  N    -1.990530 -1.700954  1.056745
  N    -2.353945  1.537251  1.215894
  N    -4.217554 -2.417434  0.184482
  N    -4.557760  1.039379  0.155503
  N    -4.617271 -2.032031  3.977322
  N    -5.178775  1.607244  4.020211
  S    -5.477057 -2.230593  2.596628
  S    -5.960458  1.180711  2.620624
  S    -2.710135 -2.036998 -0.359019
  S    -2.955789  1.217648 -0.282877
  S    -3.037812 -1.567142  3.690588
  S    -3.549537  1.744388  3.854474
