16  
    
  C    -0.351437 -0.298253  2.355703
  C    -0.334586  3.447016  2.829566
  C    -1.440085 -0.957151  1.769998
  C    -1.584193  3.042263  2.164276
  N     0.684591 -0.227412  1.547766
  N     0.677335  3.678605  1.997592
  N    -1.333539 -1.123255  0.452109
  N    -1.478085  2.906087  0.841852
  N    -1.966353 -0.632605  4.296852
  N    -2.124491  3.182948  4.732031
  S    -2.744528 -1.173412  2.940132
  S    -2.950223  2.903740  3.274159
  S     0.162363 -0.694827  0.045347
  S     0.111421  3.230591  0.467210
  S    -0.380801 -0.251269  4.106986
  S    -0.517760  3.772590  4.496996
