16  
    
  C     0.926166  0.350423  2.817955
  C     0.587961  3.620460  2.740807
  C    -0.245249 -0.159016  2.210023
  C    -0.639856  3.201467  2.127977
  N     1.946886  0.589382  2.021406
  N     1.626833  3.693666  1.933550
  N    -0.207057 -0.176055  0.870951
  N    -0.576314  3.295734  0.796772
  N    -0.829680 -0.112163  4.763661
  N    -1.248181  3.280128  4.618235
  S    -1.560032 -0.562816  3.352653
  S    -2.005206  2.833913  3.180144
  S     1.391833  0.327569  0.465053
  S     0.999076  3.611268  0.391784
  S     0.763850  0.397355  4.648334
  S     0.399309  3.596310  4.451216
