16  
    
  C     3.177398  1.643316  3.707023
  C     3.190966  5.121137  3.428098
  C     2.005445  1.124429  3.020375
  C     2.042870  4.649425  2.709679
  N     4.239796  1.751640  2.910788
  N     4.198143  5.389004  2.598581
  N     2.146331  0.771920  1.741008
  N     2.165779  4.450524  1.419092
  N     1.367836  1.465015  5.504566
  N     1.334078  4.721982  5.188749
  S     0.609326  1.084796  4.078402
  S     0.639781  4.288719  3.736507
  S     3.727722  1.148626  1.347418
  S     3.701955  4.831312  1.065781
  S     2.954029  2.035722  5.353479
  S     2.905789  5.375989  5.180383
