16  
    
  C    -4.078294 -2.262427  1.765578
  C    -4.107984  1.414836  1.677097
  C    -5.436608 -2.280657  1.202538
  C    -5.312593  1.183370  0.989481
  N    -3.122924 -2.257789  0.861267
  N    -3.021382  1.236432  0.958181
  N    -5.459601 -2.418181 -0.135773
  N    -5.198165  1.151241 -0.356183
  N    -5.678469 -1.897188  3.772305
  N    -5.959466  1.552529  3.530793
  S    -6.631182 -2.292072  2.450940
  S    -6.722887  1.324037  2.112582
  S    -3.893704 -2.310240 -0.620391
  S    -3.576203  1.131814 -0.662692
  S    -4.046900 -1.862564  3.501371
  S    -4.303344  1.674623  3.398989
