16  
    
  C     1.103896  0.256511  3.130377
  C     1.072300  4.182277  2.616579
  C    -0.063092  0.099584  2.292423
  C    -0.087421  3.583261  1.911063
  N     2.262153  0.282072  2.430130
  N     2.161047  4.379768  1.879126
  N     0.191892 -0.117996  1.007637
  N     0.202456  3.092367  0.726139
  N    -0.787830  0.263189  4.732476
  N    -0.961221  4.086666  4.262706
  S    -1.534205  0.223460  3.299716
  S    -1.443437  3.196804  2.964167
  S     1.863591 -0.001145  0.796389
  S     1.747359  3.633805  0.337998
  S     0.820519  0.484686  4.824017
  S     0.653017  4.558108  4.286826
