16  
    
  C     2.691838  1.328575  3.659303
  C     2.950142  5.094208  3.592965
  C     1.487275  1.022248  2.924284
  C     1.682848  4.989120  2.942263
  N     3.741689  1.506353  2.869043
  N     4.005807  5.178971  2.775718
  N     1.672006  0.961465  1.606953
  N     1.778275  4.893210  1.612667
  N     0.938045  0.736941  5.403947
  N     1.119667  5.120953  5.485747
  S     0.155262  0.583161  3.913514
  S     0.299021  5.064081  4.079789
  S     3.309841  1.289263  1.350045
  S     3.425117  4.906745  1.254325
  S     2.558227  1.232863  5.396167
  S     2.764067  5.234424  5.384831
