16  
    
  C     1.190121  0.188657  2.992831
  C     0.641257  3.727229  3.200901
  C    -0.032956 -0.424257  2.447756
  C    -0.515811  3.394762  2.385298
  N     2.213458  0.303871  2.142417
  N     1.655407  4.096780  2.428174
  N     0.082901 -0.668685  1.149915
  N    -0.247605  3.233255  1.110198
  N    -0.570950  0.180386  4.883161
  N    -1.195527  3.118675  4.868560
  S    -1.378672 -0.453616  3.516519
  S    -1.843201  2.853763  3.375494
  S     1.604643 -0.228239  0.739840
  S     1.241027  3.860093  0.898522
  S     1.056504  0.610764  4.631046
  S     0.397588  3.669194  4.950969
