16  
    
  C    -2.894696 -1.647504  1.999927
  C    -2.411069  1.990584  2.030335
  C    -4.194054 -1.973958  1.431792
  C    -3.717422  1.755374  1.445683
  N    -1.888227 -1.346273  1.164865
  N    -1.363055  1.836403  1.207376
  N    -4.070052 -2.151612  0.092251
  N    -3.649159  1.676578  0.101670
  N    -4.376821 -2.041196  4.030714
  N    -4.097478  2.273553  4.036689
  S    -5.298603 -2.435150  2.632251
  S    -4.954431  2.115922  2.631787
  S    -2.517734 -1.694066 -0.317863
  S    -2.064881  1.737669 -0.337172
  S    -2.835812 -1.559887  3.700682
  S    -2.428969  2.372908  3.719345
