16  
    
  C    -0.098652  0.012565  2.493002
  C    -0.024712  3.584335  2.435726
  C    -1.430120 -0.459609  2.037619
  C    -1.235143  3.129589  1.881326
  N     0.827979  0.207379  1.558278
  N     0.910518  3.938887  1.530428
  N    -1.381272 -0.784794  0.770358
  N    -1.122868  2.740306  0.600538
  N    -1.663461 -0.324052  4.600413
  N    -1.720176  3.509522  4.368330
  S    -2.648378 -0.740705  3.287788
  S    -2.518231  2.961685  2.967914
  S     0.086871 -0.394968  0.189185
  S     0.442094  3.180767  0.131148
  S    -0.082113 -0.064367  4.240862
  S    -0.170811  4.029441  4.147431
