16  
    
  C     0.825310  0.460183  3.025669
  C     0.531036  3.951820  2.932971
  C    -0.417791 -0.001383  2.394493
  C    -0.723581  3.471785  2.363166
  N     1.877386  0.430080  2.190603
  N     1.520793  3.816557  2.052293
  N    -0.308768 -0.167271  1.098639
  N    -0.700947  3.094822  1.101786
  N    -0.968340  0.256955  4.886293
  N    -1.120070  3.768656  4.956859
  S    -1.799957  0.088813  3.466166
  S    -1.946305  3.313665  3.566274
  S     1.282615  0.102578  0.648852
  S     0.864311  3.392563  0.617841
  S     0.637116  0.683116  4.753387
  S     0.471445  4.118559  4.704288
