16  
    
  C    -4.099456 -2.150607  1.780625
  C    -4.125392  1.339499  1.718442
  C    -5.409127 -2.303581  1.220701
  C    -5.380548  1.210386  0.979233
  N    -3.155900 -2.261830  0.850687
  N    -3.055491  1.228953  0.927910
  N    -5.496036 -2.394001 -0.109640
  N    -5.207345  1.141860 -0.335709
  N    -5.657666 -1.963652  3.807261
  N    -5.956967  1.533092  3.489408
  S    -6.686186 -2.291260  2.507203
  S    -6.730309  1.312918  2.071933
  S    -3.908784 -2.355196 -0.622512
  S    -3.585854  1.143143 -0.611179
  S    -4.031290 -1.896828  3.524483
  S    -4.326069  1.672199  3.429838
