16  
    
  C     1.384943  0.849976  3.368700
  C     1.211477  4.395303  3.151092
  C     0.165105  0.318694  2.868845
  C    -0.019864  3.978350  2.518293
  N     2.356367  0.898084  2.425758
  N     2.130902  4.595001  2.234828
  N     0.197704 -0.086133  1.593830
  N    -0.039765  4.105509  1.201535
  N    -0.256235  0.976243  5.301585
  N    -0.483518  4.191029  5.135289
  S    -1.117735  0.491398  4.025310
  S    -1.243632  3.761632  3.666355
  S     1.740053  0.289087  1.062453
  S     1.537491  4.417847  0.737075
  S     1.354560  1.176546  5.030102
  S     1.118744  4.571696  4.882791
