16  
    
  C     2.393881  1.022068  3.372838
  C     2.325336  4.778140  3.395355
  C     1.231459  0.695472  2.587758
  C     1.218872  4.221115  2.683831
  N     3.437987  1.378139  2.600580
  N     3.325143  5.141867  2.610543
  N     1.364069  0.865200  1.261569
  N     1.403666  4.175424  1.370612
  N     0.560581  0.523108  5.137149
  N     0.678047  4.265736  5.130822
  S    -0.116840  0.424448  3.608794
  S    -0.104742  3.943844  3.713842
  S     2.890825  1.379851  1.070104
  S     2.930382  4.722144  1.077922
  S     2.209590  1.045051  5.082228
  S     2.172529  4.751288  5.111298
