16  
    
  C     1.393401  0.558484  2.975451
  C     0.939102  4.120205  2.547407
  C     0.202223  0.241649  2.249264
  C    -0.171043  3.450536  1.879842
  N     2.545971  0.463222  2.313130
  N     2.105975  4.214743  1.850399
  N     0.423954 -0.161574  0.972530
  N     0.001355  3.267649  0.566588
  N    -0.517428  0.747090  4.737641
  N    -0.999050  3.662635  4.292146
  S    -1.175286  0.326460  3.250860
  S    -1.630374  3.224156  2.872230
  S     2.069858 -0.027946  0.774179
  S     1.577621  3.805578  0.253338
  S     1.155813  0.980117  4.627569
  S     0.615395  4.091398  4.256770
