16  
    
  C    -5.105260 -2.422135  1.875046
  C    -5.337735  0.963498  1.615560
  C    -6.388551 -2.791579  1.261327
  C    -6.669074  0.819951  0.971891
  N    -4.091722 -2.518947  1.048256
  N    -4.310180  1.119281  0.781250
  N    -6.341176 -3.155784 -0.017383
  N    -6.629594  0.653346 -0.363686
  N    -6.889779 -2.048279  3.644415
  N    -7.180487  1.066683  3.451492
  S    -7.676061 -2.762942  2.369814
  S    -8.033841  0.947006  2.066378
  S    -4.724341 -2.942740 -0.442613
  S    -5.027727  0.908943 -0.749148
  S    -5.248831 -2.132282  3.606803
  S    -5.543245  1.335019  3.257918
