16  
    
  C    -0.271726 -0.716428  2.651946
  C    -0.379383  3.133083  2.720401
  C    -1.610496 -1.014479  2.123223
  C    -1.568860  2.719720  2.023348
  N     0.754212 -0.763692  1.823979
  N     0.601362  3.402658  1.893371
  N    -1.563905 -1.364828  0.841743
  N    -1.377720  2.461965  0.722975
  N    -1.971243 -0.609989  4.653264
  N    -2.090721  2.932715  4.530593
  S    -2.851981 -1.280056  3.384622
  S    -2.864498  2.405494  3.187038
  S     0.077550 -1.224524  0.351014
  S     0.204048  2.941623  0.388951
  S    -0.339727 -0.302134  4.326717
  S    -0.590028  3.611956  4.383984
