16  
    
  C     1.103986  0.264566  3.061935
  C     0.983930  4.265133  2.612474
  C    -0.103124  0.065812  2.302409
  C    -0.027339  3.392194  2.009706
  N     2.255366  0.306912  2.342474
  N     2.054654  4.304678  1.775895
  N     0.134569 -0.111151  1.008212
  N     0.162620  3.135171  0.702316
  N    -0.888447  0.103732  4.855881
  N    -0.871126  4.186193  4.313109
  S    -1.610416  0.167106  3.342820
  S    -1.396815  3.246705  3.009405
  S     1.776145  0.002288  0.776384
  S     1.705233  3.530608  0.378014
  S     0.805551  0.397323  4.813929
  S     0.708590  4.665769  4.328758
