16  
    
  C     2.816236  1.515436  3.587806
  C     2.966652  5.223361  3.498150
  C     1.646920  0.880962  3.067527
  C     1.747827  4.793612  2.807127
  N     3.728762  1.612740  2.604184
  N     3.940188  5.567717  2.633362
  N     1.656482  0.535312  1.794599
  N     1.854962  4.665108  1.493216
  N     1.058004  1.469576  5.504504
  N     1.036577  5.116803  5.236274
  S     0.373351  0.665273  4.215398
  S     0.430944  4.379587  3.843995
  S     3.137139  1.061547  1.197977
  S     3.368830  5.236271  1.097723
  S     2.695256  1.814270  5.415969
  S     2.729723  5.358573  5.240832
