16  
    
  C    -0.872007 -0.596965  2.422975
  C    -0.565493  3.196615  2.875189
  C    -2.180653 -0.975289  1.789871
  C    -1.806196  2.907309  2.186217
  N     0.155122 -0.518715  1.573760
  N     0.439334  3.198104  2.016079
  N    -2.113172 -1.140830  0.498202
  N    -1.687044  2.431320  0.938826
  N    -2.766176 -0.707313  4.236211
  N    -2.419490  3.176129  4.749486
  S    -3.593872 -1.195288  2.867074
  S    -3.151709  2.752556  3.253136
  S    -0.467109 -0.984137  0.074143
  S    -0.122711  2.756652  0.546497
  S    -1.128908 -0.464499  4.126575
  S    -0.776806  3.633766  4.535312
