16  
    
  C    -0.338445 -0.771005  2.691878
  C    -0.372765  3.188669  2.729987
  C    -1.617119 -0.996769  2.143478
  C    -1.557017  2.620848  2.025531
  N     0.704629 -0.762742  1.828316
  N     0.622830  3.425214  1.923656
  N    -1.590255 -1.382230  0.848958
  N    -1.379847  2.500417  0.699845
  N    -1.976814 -0.595717  4.661817
  N    -2.128709  2.955367  4.519018
  S    -2.879574 -1.280439  3.375989
  S    -2.860959  2.388865  3.177795
  S     0.040021 -1.202597  0.330487
  S     0.220155  2.922624  0.406280
  S    -0.362667 -0.299942  4.354343
  S    -0.612282  3.640310  4.389115
