16  
    
  C    -4.812146 -2.259705  1.728760
  C    -4.850650  0.990286  1.723750
  C    -5.991700 -2.892219  1.142619
  C    -5.996437  0.405439  1.070594
  N    -3.818666 -2.131969  0.834487
  N    -3.821540  1.353756  0.935477
  N    -5.980483 -2.979478 -0.185069
  N    -5.861663  0.203961 -0.227700
  N    -6.407181 -2.694783  3.752791
  N    -6.773662  0.954781  3.499021
  S    -7.178901 -3.205581  2.374735
  S    -7.307873  0.106789  2.132567
  S    -4.397580 -2.609701 -0.647763
  S    -4.337407  0.860951 -0.605579
  S    -4.848267 -2.187735  3.499283
  S    -5.230422  1.480205  3.368172
