16  
    
  C     2.938111  1.500937  3.459716
  C     2.855205  5.159858  3.175095
  C     1.785604  0.889851  2.843897
  C     1.711066  4.481242  2.618813
  N     3.909526  1.853007  2.622956
  N     3.834239  5.369824  2.335079
  N     1.868638  0.722543  1.549309
  N     1.848070  4.186327  1.337436
  N     1.149819  1.463126  5.236504
  N     1.260202  4.884973  5.133929
  S     0.439661  0.707568  3.951516
  S     0.530230  4.166617  3.880024
  S     3.292420  1.333345  1.066738
  S     3.278448  4.854285  0.855505
  S     2.798191  1.730242  5.188475
  S     2.808584  5.476753  4.881040
