16  
    
  C    -0.003696 -0.619030  2.450665
  C    -0.311784  3.360132  2.572738
  C    -1.289198 -0.962010  1.781430
  C    -1.348848  2.552503  2.020298
  N     0.980583 -0.448939  1.591199
  N     0.761210  3.509065  1.783705
  N    -1.247962 -1.035835  0.460926
  N    -1.197201  2.419759  0.711982
  N    -1.663110 -0.851478  4.336690
  N    -1.921768  2.874040  4.547819
  S    -2.519729 -1.312975  2.959800
  S    -2.659564  2.240788  3.118593
  S     0.382525 -0.737740  0.097886
  S     0.329732  2.945841  0.302094
  S    -0.056454 -0.438022  4.188094
  S    -0.391218  3.478185  4.316182
