16  
    
  C    -2.563873 -1.304969  2.248847
  C    -2.604537  2.480755  2.304136
  C    -3.775002 -1.636699  1.547444
  C    -3.671184  1.768945  1.717433
  N    -1.615210 -1.029764  1.346403
  N    -1.610429  2.887642  1.490716
  N    -3.700490 -1.884118  0.241418
  N    -3.620389  1.797890  0.371216
  N    -4.362354 -1.724685  4.031987
  N    -4.400480  2.014875  4.201848
  S    -5.087350 -2.013371  2.536643
  S    -5.067338  1.451031  2.753611
  S    -2.138692 -1.472059 -0.144475
  S    -2.208874  2.582401 -0.052661
  S    -2.786109 -1.107157  3.950837
  S    -2.795570  2.511512  4.072329
