16  
    
  C     0.032903 -0.591728  2.430259
  C    -0.184307  3.155282  2.632556
  C    -1.241408 -0.910218  1.829024
  C    -1.460405  2.770086  2.018697
  N     1.042794 -0.562403  1.562083
  N     0.823228  3.371344  1.770661
  N    -1.174948 -1.023941  0.506150
  N    -1.340927  2.415522  0.754928
  N    -1.666242 -0.829726  4.406364
  N    -1.921219  2.857368  4.505435
  S    -2.461836 -1.271749  3.007162
  S    -2.645296  2.251092  3.184837
  S     0.370321 -0.858464  0.078560
  S     0.171254  2.937919  0.277449
  S    -0.110957 -0.395593  4.144608
  S    -0.413501  3.478233  4.333908
