16  
    
  C    -1.528282 -1.150942  2.732918
  C    -1.590331  2.636382  2.401140
  C    -2.597923 -1.640649  1.872088
  C    -2.818870  2.266288  1.683373
  N    -0.419485 -0.866515  2.029635
  N    -0.498829  2.782371  1.627724
  N    -2.339153 -1.645790  0.532514
  N    -2.562016  1.854663  0.454248
  N    -3.461771 -1.484055  4.318014
  N    -3.529251  2.469650  4.115300
  S    -4.018871 -1.919509  2.799638
  S    -4.234698  2.049867  2.662664
  S    -0.766173 -1.191586  0.450874
  S    -0.950694  2.238880  0.091861
  S    -1.803886 -1.203369  4.401487
  S    -1.915506  2.883966  4.095277
