16  
    
  C     1.583468  0.655581  2.797561
  C     0.896756  3.918856  2.499303
  C     0.354313  0.247679  2.193205
  C    -0.376047  3.485974  1.871824
  N     2.604210  0.831640  1.968640
  N     1.835207  4.221982  1.614849
  N     0.391323  0.196568  0.826928
  N    -0.184309  3.119534  0.617832
  N    -0.121905  0.537399  4.725549
  N    -0.864473  3.737543  4.376082
  S    -0.880051 -0.022782  3.412880
  S    -1.592407  3.147773  3.021131
  S     1.974880  0.550558  0.446452
  S     1.332809  3.654436  0.194836
  S     1.411985  0.950526  4.556752
  S     0.748334  4.179519  4.161588
