16  
    
  C    -4.793320 -2.517841  1.893573
  C    -5.222046  1.239807  1.804947
  C    -5.981680 -3.059779  1.263049
  C    -6.349343  0.561564  1.154508
  N    -3.808307 -2.217972  1.043919
  N    -4.162879  1.334663  1.014066
  N    -5.880699 -3.163902 -0.075315
  N    -6.228306  0.197201 -0.141555
  N    -6.668031 -2.851039  3.803849
  N    -7.017997  1.009143  3.662934
  S    -7.365887 -3.248948  2.324070
  S    -7.687734  0.393056  2.185849
  S    -4.332362 -2.653149 -0.478823
  S    -4.645007  0.707417 -0.485471
  S    -5.106203 -2.278373  3.588868
  S    -5.351503  1.362551  3.532704
