16  
    
  C    -4.215455 -2.083954  2.070134
  C    -4.161804  1.446512  1.885448
  C    -5.508988 -2.294121  1.498912
  C    -5.452070  1.089804  1.270447
  N    -3.235713 -1.991460  1.197892
  N    -3.112403  1.377456  1.043440
  N    -5.515049 -2.426987  0.160728
  N    -5.351296  1.034504 -0.065990
  N    -5.965712 -1.964025  3.957529
  N    -5.941850  1.384935  3.845684
  S    -6.843540 -2.498694  2.633784
  S    -6.742035  1.085189  2.409653
  S    -3.913723 -2.193947 -0.290273
  S    -3.692966  1.184744 -0.466201
  S    -4.286529 -1.761727  3.795152
  S    -4.327905  1.676152  3.701684
