16  
    
  C    -1.308685 -0.928484  2.074520
  C    -1.535236  3.336268  2.012457
  C    -2.568698 -1.368805  1.452829
  C    -2.529284  2.497768  1.399799
  N    -0.440780 -0.529420  1.120464
  N    -0.569072  3.655579  1.168509
  N    -2.487862 -1.596228  0.128723
  N    -2.297281  2.207404  0.113131
  N    -2.921666 -1.062848  4.041801
  N    -3.193961  2.716699  3.876228
  S    -3.758380 -1.544948  2.682776
  S    -3.871893  2.104639  2.470361
  S    -0.992299 -1.012854 -0.345287
  S    -0.954551  3.029792 -0.320417
  S    -1.315972 -0.679478  3.794924
  S    -1.701333  3.422545  3.673055
