16  
    
  C    -5.766029 -3.032959  1.542823
  C    -6.065633  0.778278  1.360928
  C    -6.909109 -3.487173  0.827309
  C    -7.226161  0.239309  0.709091
  N    -4.663194 -2.968536  0.790941
  N    -5.142877  1.192882  0.489280
  N    -6.696780 -3.615831 -0.487021
  N    -7.205820  0.215540 -0.642602
  N    -7.799911 -3.107258  3.193894
  N    -7.673054  0.248736  3.249261
  S    -8.413033 -3.387526  1.654204
  S    -8.542670 -0.071193  1.879077
  S    -5.139760 -3.251638 -0.773543
  S    -5.777964  0.938163 -1.004958
  S    -6.186824 -3.062759  3.306525
  S    -6.119963  0.823128  3.121261
