16  
    
  C    -4.495413 -2.463411  1.513924
  C    -4.347851  1.439689  1.933468
  C    -5.592606 -2.958289  0.731840
  C    -5.555588  0.916666  1.399808
  N    -3.476364 -1.973276  0.813046
  N    -3.431777  1.804643  1.022092
  N    -5.309025 -2.977924 -0.573520
  N    -5.542265  0.808164  0.083415
  N    -6.279689 -3.000081  3.157957
  N    -5.952650  0.910267  3.945967
  S    -6.993105 -3.245858  1.683325
  S    -6.796737  0.553327  2.611866
  S    -3.856678 -2.250465 -0.780969
  S    -4.113039  1.384049 -0.487569
  S    -4.721397 -2.356685  3.243335
  S    -4.466917  1.615447  3.643782
