16  
    
  C     0.629251 -0.118901  2.777476
  C     0.324296  3.511231  2.895218
  C    -0.611103 -0.564708  2.174209
  C    -0.926491  3.238761  2.184533
  N     1.632394  0.021932  1.898722
  N     1.333765  3.969170  2.140236
  N    -0.578126 -0.517799  0.832167
  N    -0.754082  3.328711  0.857814
  N    -1.052861 -0.470956  4.772964
  N    -1.441856  3.110084  4.724933
  S    -1.966460 -0.655662  3.395174
  S    -2.221671  2.827266  3.242391
  S     0.964280 -0.133026  0.361793
  S     0.821569  3.714266  0.580451
  S     0.510200 -0.036657  4.527014
  S     0.151333  3.440939  4.626308
