16  
    
  C    -4.731381 -2.624253  1.648187
  C    -4.870398  1.283783  1.465084
  C    -5.966147 -3.023134  1.076179
  C    -5.963586  0.661261  0.832701
  N    -3.803232 -2.314009  0.735538
  N    -3.774952  1.377218  0.685272
  N    -5.947260 -3.218115 -0.248026
  N    -5.775192  0.511203 -0.478375
  N    -6.322080 -2.785379  3.668506
  N    -6.581556  0.759537  3.339509
  S    -7.207346 -2.986716  2.307446
  S    -7.252601  0.304270  1.900328
  S    -4.429514 -2.737493 -0.751622
  S    -4.222186  0.843991 -0.770443
  S    -4.758301 -2.192826  3.346309
  S    -4.959610  1.239167  3.196874
