16  
    
  C    -4.018827 -1.895071  1.695579
  C    -3.902922  1.524192  1.723959
  C    -5.264026 -2.230533  1.051409
  C    -5.187900  1.324940  1.075739
  N    -2.986435 -1.897159  0.861372
  N    -2.921974  1.548567  0.837239
  N    -5.150230 -2.514677 -0.242463
  N    -5.156920  1.082269 -0.242742
  N    -5.788004 -1.881166  3.594852
  N    -5.691948  1.565703  3.637762
  S    -6.569521 -2.271174  2.157990
  S    -6.524443  1.368373  2.161351
  S    -3.518911 -2.301003 -0.650785
  S    -3.505551  1.244860 -0.653285
  S    -4.135129 -1.688969  3.438349
  S    -4.053254  1.675099  3.432343
