16  
    
  C    -1.306251 -0.960559  2.214798
  C    -1.537206  2.977040  1.970408
  C    -2.537189 -1.261079  1.509527
  C    -2.575741  2.238578  1.376189
  N    -0.260166 -0.721121  1.369475
  N    -0.521355  3.345693  1.198317
  N    -2.370653 -1.429456  0.183532
  N    -2.414188  2.162343  0.066766
  N    -3.130465 -1.116319  3.985266
  N    -3.308029  2.558741  3.819773
  S    -3.846827 -1.667795  2.544657
  S    -3.862252  1.822482  2.433686
  S    -0.840909 -0.992976 -0.140680
  S    -0.938531  2.776891 -0.327663
  S    -1.508873 -0.768739  3.898510
  S    -1.878346  3.386573  3.668189
