16  
    
  C     1.585031  0.814388  3.275872
  C     2.031559  4.624938  3.278687
  C     0.547599  0.174686  2.511346
  C     0.855858  3.986099  2.694598
  N     2.638398  1.207708  2.527608
  N     3.062653  4.620801  2.403770
  N     0.867235  0.042019  1.209904
  N     0.905229  3.966161  1.328670
  N    -0.225957  0.395933  4.992903
  N     0.263479  4.281768  5.215330
  S    -0.855697 -0.108074  3.493396
  S    -0.498998  3.727634  3.854293
  S     2.387559  0.718612  0.968787
  S     2.465930  4.322034  0.911896
  S     1.270517  0.985629  4.963788
  S     1.848126  4.938063  4.936132
