16  
    
  C     2.061390  0.669074  3.140255
  C     2.040917  4.466886  2.952734
  C     0.785312  0.424682  2.560707
  C     0.816329  3.956716  2.382534
  N     3.093172  0.644938  2.276675
  N     3.138587  4.505317  2.201214
  N     0.856826  0.133094  1.228479
  N     1.049287  3.631115  1.117302
  N     0.349101  0.983160  5.131893
  N     0.340413  4.440953  4.855119
  S    -0.547446  0.644147  3.711336
  S    -0.533011  3.935758  3.524156
  S     2.404717  0.295958  0.800683
  S     2.595636  4.005547  0.704027
  S     2.044350  0.966118  4.899938
  S     1.902151  4.786729  4.708377
