16  
    
  C    -4.048173 -2.241680  1.755586
  C    -4.037497  1.399051  1.674215
  C    -5.331316 -2.378544  1.199215
  C    -5.366948  1.317736  1.018200
  N    -3.083772 -2.230306  0.863920
  N    -2.963189  1.338360  0.891231
  N    -5.420555 -2.399237 -0.121031
  N    -5.212266  1.114391 -0.277475
  N    -5.729064 -1.808984  3.690162
  N    -5.865429  1.593230  3.569756
  S    -6.584649 -2.281701  2.365572
  S    -6.719341  1.320202  2.107535
  S    -3.815739 -2.252707 -0.612678
  S    -3.536435  1.121452 -0.682378
  S    -4.081050 -1.819526  3.421995
  S    -4.223032  1.677991  3.371341
