16  
    
  C    -2.593059 -1.870261  1.929464
  C    -3.013818  2.080834  1.796689
  C    -3.884633 -2.090718  1.271211
  C    -4.124024  1.594014  1.036230
  N    -1.510149 -1.925393  1.163003
  N    -2.036954  2.539292  1.045888
  N    -3.737172 -2.262886 -0.036945
  N    -3.944667  1.462043 -0.262815
  N    -4.368806 -1.848648  3.811521
  N    -4.804937  1.639629  3.474877
  S    -5.267939 -1.918963  2.413624
  S    -5.499945  1.194706  2.053998
  S    -2.129460 -2.190878 -0.394238
  S    -2.495870  2.233714 -0.520170
  S    -2.733766 -1.716374  3.662070
  S    -3.308821  2.325771  3.454251
