16  
    
  C    -3.191787 -2.079429  1.932044
  C    -3.727040  1.864749  2.032675
  C    -4.371210 -2.600113  1.286510
  C    -4.729000  1.078880  1.334183
  N    -2.169154 -1.965137  1.104149
  N    -2.727290  2.164420  1.244010
  N    -4.282634 -2.811032 -0.038785
  N    -4.369632  0.753324  0.112606
  N    -5.070142 -2.192802  3.704227
  N    -5.611916  1.507563  3.657181
  S    -5.726329 -2.874167  2.368555
  S    -6.088854  0.618316  2.238663
  S    -2.715308 -2.456513 -0.422618
  S    -2.949901  1.543486 -0.225200
  S    -3.564447 -1.532675  3.503597
  S    -4.058540  2.194352  3.697438
