16  
    
  C    -0.031896 -0.661090  2.491878
  C    -0.212070  3.012326  2.615417
  C    -1.208157 -1.184029  1.888816
  C    -1.532322  2.664930  2.064443
  N     0.969963 -0.564623  1.652580
  N     0.749628  3.327342  1.739639
  N    -1.140809 -1.305187  0.583926
  N    -1.457869  2.484652  0.745187
  N    -1.645663 -0.708240  4.432069
  N    -1.888800  2.882292  4.578003
  S    -2.520568 -1.194716  3.051181
  S    -2.751398  2.371890  3.267636
  S     0.387951 -0.944559  0.161972
  S     0.067545  2.974421  0.248207
  S    -0.045918 -0.340012  4.237170
  S    -0.317149  3.393198  4.313544
