16  
    
  C    -1.357164 -1.007733  2.294704
  C    -1.588784  2.874019  2.030754
  C    -2.513498 -1.288872  1.552016
  C    -2.581967  2.099184  1.341828
  N    -0.218620 -0.725010  1.566657
  N    -0.544187  3.107274  1.285979
  N    -2.244524 -1.452614  0.232393
  N    -2.384476  1.899159  0.044931
  N    -3.252947 -1.516251  4.046659
  N    -3.310690  2.385144  3.835201
  S    -3.971633 -1.662025  2.548136
  S    -3.870625  1.639250  2.441873
  S    -0.682429 -1.020790 -0.004151
  S    -0.858209  2.534157 -0.251714
  S    -1.741773 -0.826279  3.988357
  S    -1.882319  3.248383  3.700792
