16  
    
  C    -5.718925 -3.112456  1.591720
  C    -6.047104  0.797788  1.364524
  C    -6.888450 -3.429256  0.818114
  C    -7.216264  0.150543  0.725087
  N    -4.651475 -2.937012  0.782708
  N    -5.123655  1.210352  0.493599
  N    -6.685144 -3.637782 -0.468027
  N    -7.226501  0.175603 -0.607744
  N    -7.810683 -3.080129  3.180898
  N    -7.654015  0.261935  3.305915
  S    -8.427802 -3.403918  1.675387
  S    -8.534872 -0.142010  1.935576
  S    -5.124922 -3.266481 -0.766968
  S    -5.816213  0.966975 -1.044356
  S    -6.171957 -3.058710  3.353795
  S    -6.141712  0.844891  3.127014
