16  
    
  C    -5.383067 -2.498832  1.312893
  C    -5.433365  1.026180  1.276000
  C    -6.629656 -3.006920  0.760729
  C    -6.598075  0.563451  0.597115
  N    -4.399961 -2.301315  0.439635
  N    -4.482687  1.432518  0.465091
  N    -6.551008 -3.127633 -0.556818
  N    -6.390534  0.488710 -0.709439
  N    -6.869447 -3.109393  3.330544
  N    -7.178614  0.460056  3.083592
  S    -7.844454 -3.415157  2.020018
  S    -7.908982  0.112966  1.631897
  S    -4.990810 -2.818454 -1.019252
  S    -4.905547  1.111190 -1.060632
  S    -5.358100 -2.427708  3.039074
  S    -5.619484  1.217952  3.029023
