16  
    
  C    -2.845129 -1.761709  2.016670
  C    -2.655259  2.219831  2.038417
  C    -4.049731 -2.122595  1.254771
  C    -3.888945  1.865142  1.308519
  N    -1.796058 -1.476386  1.253178
  N    -1.628892  2.220572  1.204819
  N    -3.814991 -2.387743 -0.020175
  N    -3.805393  1.894677 -0.016681
  N    -4.798486 -2.237474  3.670499
  N    -4.517102  1.928679  3.826561
  S    -5.472616 -2.540619  2.213059
  S    -5.272277  1.830645  2.324769
  S    -2.298778 -1.869662 -0.318414
  S    -2.189399  2.107873 -0.365128
  S    -3.185103 -1.686264  3.713732
  S    -2.917303  2.454876  3.744224
