16  
    
  C    -0.258684 -0.609397  2.621244
  C    -0.341706  3.321937  2.641951
  C    -1.440261 -1.116535  2.119706
  C    -1.562008  2.689916  2.064340
  N     0.783116 -0.723147  1.788390
  N     0.724712  3.349631  1.858443
  N    -1.408272 -1.363705  0.782503
  N    -1.419949  2.429145  0.770170
  N    -1.848503 -0.645679  4.594458
  N    -2.059712  2.866191  4.635539
  S    -2.700521 -1.235633  3.312331
  S    -2.859709  2.478381  3.186769
  S     0.149859 -1.252768  0.368781
  S     0.089228  2.954735  0.326068
  S    -0.288665 -0.312560  4.322956
  S    -0.508380  3.474398  4.348235
