16  
    
  C     3.323392  1.477187  3.340945
  C     3.108859  5.051609  3.443609
  C     2.000134  1.378051  2.776681
  C     1.847684  4.579962  2.873821
  N     4.316517  1.435403  2.456931
  N     4.140803  5.072200  2.613622
  N     1.970940  1.209384  1.446093
  N     1.949951  4.351228  1.565457
  N     1.668800  1.774828  5.319401
  N     1.446329  5.002426  5.429311
  S     0.757449  1.649019  3.959819
  S     0.540615  4.652800  4.096604
  S     3.557335  1.316508  1.012522
  S     3.558370  4.741785  1.125614
  S     3.271606  1.797804  5.075869
  S     3.026900  5.339793  5.142711
