16  
    
  C     3.327775  1.472557  3.588030
  C     3.087335  5.146055  3.406909
  C     2.056834  0.980088  3.074760
  C     1.950878  4.610829  2.759304
  N     4.335293  1.640650  2.737915
  N     4.089122  5.544087  2.607285
  N     2.075502  0.811483  1.752200
  N     2.178245  4.268909  1.466442
  N     1.761788  1.347593  5.624384
  N     1.180034  4.908559  5.131953
  S     0.882289  0.993710  4.268830
  S     0.620650  4.193710  3.705697
  S     3.603381  1.243354  1.215930
  S     3.582200  4.937389  1.117310
  S     3.327627  1.922302  5.272079
  S     2.758251  5.452875  5.096629
