16  
    
  C    -2.974460 -1.356455  2.120805
  C    -3.206561  1.833271  1.974066
  C    -4.227299 -1.673966  1.482314
  C    -4.382711  1.385566  1.244094
  N    -1.925742 -1.156933  1.296361
  N    -2.055011  1.890793  1.268346
  N    -4.105588 -1.922294  0.173592
  N    -4.193157  1.358152 -0.076496
  N    -4.750845 -1.683891  4.037273
  N    -5.073594  1.636521  3.691197
  S    -5.550296 -1.998130  2.635328
  S    -5.808875  1.235404  2.223290
  S    -2.545596 -1.561647 -0.221185
  S    -2.609916  1.673627 -0.327734
  S    -3.204101 -1.068884  3.823872
  S    -3.436199  1.987455  3.719788
