16  
    
  C    -3.882743 -2.417589  1.613971
  C    -3.427772  1.737820  1.565794
  C    -5.184950 -2.328678  0.982505
  C    -4.558612  1.067595  1.047472
  N    -2.838592 -2.224021  0.793214
  N    -2.436576  1.963235  0.681757
  N    -5.083256 -2.177215 -0.350297
  N    -4.502948  1.001750 -0.284349
  N    -5.575273 -2.451150  3.469767
  N    -5.097771  1.537258  3.452274
  S    -6.398648 -2.756578  2.074690
  S    -5.923166  0.954347  2.137338
  S    -3.497970 -2.035841 -0.675737
  S    -3.027316  1.583831 -0.755732
  S    -3.920832 -2.593798  3.339201
  S    -3.581574  2.181472  3.253582
