16  
    
  C    -1.592436 -1.100013  2.270668
  C    -1.841859  2.420165  2.233195
  C    -2.874798 -1.431436  1.718647
  C    -3.090640  1.990311  1.584998
  N    -0.606762 -1.046888  1.402315
  N    -0.822154  2.676936  1.405676
  N    -2.842831 -1.558193  0.417624
  N    -2.889127  1.700500  0.291803
  N    -3.244196 -0.900986  4.230078
  N    -3.553367  2.181561  4.118715
  S    -4.151361 -1.251943  2.904497
  S    -4.345095  1.801532  2.699329
  S    -1.273339 -1.350662 -0.098475
  S    -1.357484  2.174671 -0.098905
  S    -1.584987 -0.890541  4.070836
  S    -1.924408  2.585825  3.954774
