16  
    
  C    -1.543267 -1.285076  2.143444
  C    -1.742789  2.308845  1.895749
  C    -2.840209 -1.375957  1.464839
  C    -2.970519  1.949239  1.304091
  N    -0.560139 -1.334795  1.282874
  N    -0.689771  2.459951  1.087704
  N    -2.776685 -1.536689  0.167545
  N    -2.928597  2.033477 -0.038379
  N    -3.240141 -0.977081  4.034980
  N    -3.473217  2.357357  3.766764
  S    -4.151566 -1.189321  2.634314
  S    -4.302622  1.833973  2.457212
  S    -1.160066 -1.383152 -0.201991
  S    -1.331806  2.220647 -0.442928
  S    -1.577048 -0.808580  3.794208
  S    -1.828014  2.409633  3.660243
