16  
    
  C    -4.737290 -2.630764  1.653920
  C    -4.851077  1.272054  1.478623
  C    -5.973580 -2.992742  1.055370
  C    -5.963805  0.672740  0.830770
  N    -3.811548 -2.326190  0.724744
  N    -3.755336  1.367872  0.673450
  N    -5.941279 -3.231313 -0.265057
  N    -5.790707  0.544119 -0.474209
  N    -6.317908 -2.777021  3.655145
  N    -6.560908  0.770906  3.322420
  S    -7.205635 -2.985754  2.306663
  S    -7.267012  0.310970  1.898097
  S    -4.426925 -2.758964 -0.759234
  S    -4.208016  0.842826 -0.792927
  S    -4.754889 -2.208070  3.349554
  S    -4.963026  1.225228  3.180916
