16  
    
  C    -1.326909 -0.976636  2.197360
  C    -1.533046  3.021528  1.996017
  C    -2.565002 -1.304782  1.462844
  C    -2.578817  2.191230  1.385790
  N    -0.289464 -0.751009  1.453067
  N    -0.447843  3.258709  1.214680
  N    -2.374541 -1.388356  0.168117
  N    -2.444798  2.115982  0.056756
  N    -3.138728 -1.214670  3.957408
  N    -3.326451  2.512722  3.839366
  S    -3.845985 -1.655528  2.530959
  S    -3.865343  1.759955  2.432989
  S    -0.801624 -1.003206 -0.089560
  S    -0.933079  2.729347 -0.312092
  S    -1.546260 -0.757497  3.947882
  S    -1.903436  3.355843  3.634782
