16  
    
  C    -3.534575 -2.572042  1.886886
  C    -3.619230  1.800333  1.829823
  C    -4.697117 -3.080398  1.208687
  C    -4.666994  1.019791  1.256250
  N    -2.467242 -2.454579  1.099127
  N    -2.689487  2.198631  0.978998
  N    -4.564044 -3.048680 -0.097565
  N    -4.363458  0.631559  0.016404
  N    -5.432059 -2.599942  3.688570
  N    -5.376957  1.502637  3.656348
  S    -6.070498 -3.320866  2.310601
  S    -5.906539  0.650790  2.292831
  S    -2.997179 -2.690280 -0.445960
  S    -3.001824  1.470231 -0.403053
  S    -3.857822 -2.268998  3.541366
  S    -3.831224  2.215846  3.493833
