16  
    
  C    -1.229334 -0.469731  2.188334
  C    -1.173212  3.042824  2.257378
  C    -2.468489 -0.881272  1.626460
  C    -2.459550  2.703701  1.685233
  N    -0.195009 -0.265986  1.339682
  N    -0.200518  3.056030  1.364809
  N    -2.373118 -1.129883  0.351795
  N    -2.550559  2.816401  0.364263
  N    -2.907957 -0.732221  4.065790
  N    -2.847588  3.096716  4.257834
  S    -3.702620 -1.360942  2.739552
  S    -3.728436  2.725678  2.871091
  S    -0.843712 -0.711663 -0.156874
  S    -0.951979  2.919106 -0.146211
  S    -1.400697 -0.168542  3.881795
  S    -1.198009  3.316906  4.000741
