16  
    
  C    -4.733172 -2.429518  1.545425
  C    -4.714810  1.020981  1.433161
  C    -5.979844 -2.951954  1.060794
  C    -5.960806  0.783407  0.743309
  N    -3.703917 -2.469400  0.660213
  N    -3.602420  1.209524  0.637198
  N    -6.000106 -3.208467 -0.241252
  N    -5.802534  0.637649 -0.563936
  N    -6.329968 -2.656229  3.584647
  N    -6.599487  0.869414  3.245696
  S    -7.268693 -3.016337  2.231403
  S    -7.336019  0.379713  1.868946
  S    -4.416627 -2.912299 -0.779526
  S    -4.196290  0.896780 -0.918202
  S    -4.702835 -2.367760  3.310498
  S    -4.929503  1.173833  3.184564
