16  
    
  C     2.177798  1.183316  3.415609
  C     2.293702  4.553321  3.171621
  C     0.957805  0.745779  2.783819
  C     0.991120  4.319422  2.587373
  N     3.207049  1.408437  2.596859
  N     3.212159  4.978039  2.323178
  N     1.116359  0.656996  1.467253
  N     1.045334  4.462784  1.281264
  N     0.497782  0.790533  5.326240
  N     0.607545  4.259516  5.119265
  S    -0.379007  0.472830  3.918370
  S    -0.308850  3.909965  3.724482
  S     2.666354  1.069121  1.102341
  S     2.561692  4.949986  0.806961
  S     2.113290  1.261440  5.149588
  S     2.170918  4.746245  4.924612
