16  
    
  C    -1.062310 -0.401400  2.420885
  C    -1.107616  3.109097  2.427056
  C    -2.112819 -1.025192  1.723164
  C    -2.364889  2.778992  1.772360
  N    -0.051349 -0.157208  1.655527
  N    -0.070859  3.072165  1.578950
  N    -2.018336 -1.165590  0.410504
  N    -2.317199  2.484931  0.472820
  N    -2.794367 -1.024937  4.230623
  N    -2.943043  3.164458  4.190828
  S    -3.469169 -1.450514  2.739696
  S    -3.767378  3.041060  2.788858
  S    -0.477671 -0.600333  0.087368
  S    -0.701002  2.667193  0.072395
  S    -1.200847 -0.513444  4.166553
  S    -1.311552  3.269180  4.116554
