16  
    
  C    -2.661764 -1.793382  2.018928
  C    -2.905747  2.273091  1.873955
  C    -3.919362 -2.127369  1.313258
  C    -4.079974  1.879092  1.123340
  N    -1.599241 -1.920858  1.229380
  N    -1.883952  2.699539  1.119841
  N    -3.791276 -2.215998  0.004603
  N    -3.852540  1.698948 -0.183582
  N    -4.675747 -1.900163  3.690610
  N    -4.751274  1.818531  3.606656
  S    -5.393834 -2.260008  2.258506
  S    -5.433612  1.457715  2.139543
  S    -2.195284 -2.060388 -0.325977
  S    -2.348716  2.235238 -0.463312
  S    -2.982525 -1.737901  3.715364
  S    -3.165938  2.334922  3.654416
