16  
    
  C     1.060531  0.101098  2.903075
  C     0.930171  3.656939  3.039725
  C    -0.162216 -0.436823  2.449765
  C    -0.403688  3.451461  2.497082
  N     2.002129  0.219911  1.980669
  N     1.917591  3.857172  2.128539
  N    -0.198734 -0.695271  1.156286
  N    -0.375143  3.197627  1.203884
  N    -0.408324 -0.083826  5.026741
  N    -0.783882  3.530958  5.007371
  S    -1.335485 -0.533357  3.743526
  S    -1.693273  3.294542  3.653269
  S     1.273789 -0.262402  0.573156
  S     1.127593  3.512251  0.672327
  S     1.181784  0.408817  4.656211
  S     0.819530  4.001188  4.727478
