16  
    
  C    -3.295405 -2.190976  1.896793
  C    -3.765914  1.978855  1.955760
  C    -4.471046 -2.710078  1.269016
  C    -4.658959  1.007864  1.302726
  N    -2.247238 -1.983078  1.108940
  N    -2.721636  2.342839  1.234734
  N    -4.253979 -3.014802  0.010542
  N    -4.380200  0.767616  0.023392
  N    -5.126119 -2.305821  3.712684
  N    -5.626253  1.435797  3.674218
  S    -5.828088 -2.904149  2.287782
  S    -6.009727  0.606746  2.359492
  S    -2.715562 -2.533260 -0.355318
  S    -2.984885  1.623818 -0.291233
  S    -3.620054 -1.626093  3.507269
  S    -4.214885  2.236376  3.597573
