16  
    
  C     2.147373  1.294924  3.424651
  C     2.259615  4.687850  3.236560
  C     0.977159  0.832685  2.723005
  C     1.032763  4.261210  2.556946
  N     3.165770  1.579894  2.659646
  N     3.285574  4.929552  2.447605
  N     1.133302  0.644245  1.414374
  N     1.002735  4.443516  1.239144
  N     0.538780  0.753679  5.274797
  N     0.600915  4.241130  5.138430
  S    -0.299918  0.487666  3.840968
  S    -0.174748  3.860763  3.712599
  S     2.767927  1.125228  1.121818
  S     2.618799  4.864299  0.941523
  S     2.124609  1.089782  5.124629
  S     2.237097  4.752476  4.954338
