16  
    
  C    -5.815613 -3.069155  1.585204
  C    -6.029105  0.765156  1.401925
  C    -6.943572 -3.491593  0.800380
  C    -7.217894  0.189026  0.823900
  N    -4.667885 -2.968299  0.919292
  N    -5.258583  1.283230  0.459833
  N    -6.708067 -3.573519 -0.492706
  N    -7.244062  0.137835 -0.500888
  N    -7.726923 -3.126990  3.258715
  N    -7.665801  0.270033  3.395539
  S    -8.391767 -3.507457  1.738655
  S    -8.406419 -0.311272  2.021475
  S    -5.081416 -3.306469 -0.674431
  S    -5.895649  0.935391 -0.996358
  S    -6.080871 -2.992092  3.274088
  S    -6.133670  0.899418  3.094505
