16  
    
  C     0.896984  0.214375  2.856141
  C     0.567680  3.615146  2.968094
  C    -0.331055 -0.344945  2.255622
  C    -0.808026  3.565178  2.419975
  N     1.914836  0.356735  1.996927
  N     1.455467  3.986232  2.055492
  N    -0.291805 -0.501778  0.930459
  N    -0.899321  3.738348  1.126421
  N    -0.850774  0.006926  4.818657
  N    -1.153070  3.324821  4.933905
  S    -1.683081 -0.178108  3.400207
  S    -2.089370  3.329855  3.568154
  S     1.267639 -0.053075  0.518591
  S     0.720766  3.870762  0.557068
  S     0.751374  0.331639  4.622473
  S     0.525730  3.402875  4.652347
