16  
    
  C    -4.741597 -2.656485  1.505798
  C    -4.597327  1.162129  1.537693
  C    -5.971646 -2.931647  0.857607
  C    -5.852657  0.894433  0.882418
  N    -3.785807 -2.485182  0.625492
  N    -3.569773  1.194442  0.717016
  N    -5.973333 -3.000791 -0.465923
  N    -5.792326  0.854765 -0.437415
  N    -6.416080 -2.720622  3.456566
  N    -6.425016  0.732238  3.370122
  S    -7.284180 -2.983496  2.008132
  S    -7.240282  0.634107  1.844480
  S    -4.407584 -2.731286 -0.887661
  S    -4.151793  0.914751 -0.823467
  S    -4.763334 -2.500294  3.257366
  S    -4.732733  0.910309  3.215320
