16  
    
  C    -0.939643 -0.681615  2.414028
  C    -0.593587  3.237208  2.849985
  C    -2.166719 -0.959995  1.794633
  C    -1.844812  2.850115  2.159295
  N     0.097156 -0.495373  1.553838
  N     0.423710  3.196781  2.017680
  N    -2.079042 -1.220226  0.487894
  N    -1.701519  2.390770  0.922275
  N    -2.752458 -0.739137  4.240807
  N    -2.413088  3.144037  4.713771
  S    -3.600856 -1.193205  2.856024
  S    -3.175429  2.769329  3.245126
  S    -0.497591 -1.010781  0.067236
  S    -0.140708  2.731603  0.526832
  S    -1.149462 -0.452857  4.122177
  S    -0.786963  3.589278  4.528470
