16  
    
  C    -3.023563 -1.636002  2.278886
  C    -3.363087  1.884094  2.016352
  C    -4.294979 -1.900986  1.647139
  C    -4.608727  1.449743  1.482838
  N    -1.996968 -1.571869  1.452583
  N    -2.428844  2.077210  1.072630
  N    -4.210866 -1.952090  0.335482
  N    -4.617568  1.337244  0.159903
  N    -4.813957 -1.835410  4.116304
  N    -4.900394  1.343775  4.046171
  S    -5.649719 -1.813997  2.650907
  S    -5.777597  1.056205  2.664187
  S    -2.604726 -1.847493 -0.085840
  S    -3.088527  1.750801 -0.372303
  S    -3.146848 -1.614030  4.064834
  S    -3.310168  1.885819  3.773905
