16  
    
  C     3.275445  1.628146  3.618579
  C     3.120457  5.052126  3.410765
  C     2.028939  1.131337  3.020909
  C     1.955416  4.562795  2.695746
  N     4.326924  1.624409  2.810383
  N     4.145711  5.419750  2.634819
  N     2.083441  0.840104  1.720548
  N     2.245462  4.284521  1.384785
  N     1.503555  1.471820  5.548682
  N     1.176139  5.023002  5.144747
  S     0.682819  0.974990  4.169685
  S     0.642282  4.154777  3.840540
  S     3.672727  1.075038  1.280977
  S     3.692240  5.000912  1.113019
  S     3.075594  2.043832  5.268640
  S     2.808046  5.346851  5.049903
