16  
    
  C     2.412516  0.997837  3.318869
  C     2.355557  4.688738  3.396116
  C     1.223381  0.693240  2.565657
  C     1.189765  4.275026  2.674744
  N     3.490837  1.347613  2.643964
  N     3.344597  5.131048  2.675400
  N     1.366344  0.906627  1.240231
  N     1.456154  4.106596  1.398547
  N     0.594005  0.543676  5.106600
  N     0.629916  4.267928  5.144710
  S    -0.094302  0.399852  3.611230
  S    -0.094546  3.953034  3.711335
  S     2.926145  1.372926  1.058659
  S     2.955499  4.751828  1.111680
  S     2.215440  1.045939  5.038045
  S     2.190942  4.787217  5.092637
