16  
    
  C    -0.957275 -0.516983  2.399673
  C    -1.125316  3.084561  2.390587
  C    -2.153538 -0.977740  1.709320
  C    -2.366242  2.830200  1.772929
  N     0.035409 -0.141277  1.643445
  N    -0.023170  3.045885  1.622158
  N    -1.928162 -1.205609  0.423283
  N    -2.201833  2.435569  0.514729
  N    -2.705368 -1.120008  4.239498
  N    -2.956964  3.175510  4.277734
  S    -3.424696 -1.495059  2.800515
  S    -3.744488  3.040697  2.775680
  S    -0.373816 -0.682201  0.120691
  S    -0.622262  2.689106  0.122742
  S    -1.149583 -0.593498  4.207470
  S    -1.262472  3.316040  4.145810
