16  
    
  C     1.756118  0.648892  3.266389
  C     2.074620  4.579753  3.315861
  C     0.630210  0.171096  2.443044
  C     0.838436  4.023216  2.719492
  N     2.810715  0.973489  2.531848
  N     2.974817  4.958653  2.450055
  N     0.836056  0.143066  1.129438
  N     0.866382  4.002449  1.428513
  N    -0.252342  0.170379  4.918649
  N     0.394857  4.048934  5.215999
  S    -0.731338 -0.343950  3.411205
  S    -0.491686  3.661059  3.778344
  S     2.419199  0.675263  0.914490
  S     2.421848  4.498170  0.881371
  S     1.436606  0.664730  4.999460
  S     1.896838  4.660210  5.022648
