16  
    
  C     1.554911  0.717874  2.866655
  C     0.830611  4.035938  2.491245
  C     0.276188  0.349132  2.242635
  C    -0.316188  3.497305  1.868620
  N     2.542817  0.952499  1.990080
  N     1.803240  4.344672  1.603170
  N     0.358456  0.287883  0.947557
  N    -0.086298  3.164038  0.597368
  N    -0.127487  0.260512  4.735196
  N    -0.896284  3.764854  4.324123
  S    -1.007612 -0.022877  3.342700
  S    -1.576720  3.128202  2.989981
  S     1.889810  0.676866  0.508386
  S     1.453410  3.678829  0.190655
  S     1.415343  0.820489  4.620192
  S     0.697961  4.265074  4.242620
