16  
    
  C     1.049739  0.279350  2.949622
  C     0.452371  3.665859  2.844908
  C    -0.152141 -0.207000  2.254113
  C    -0.635317  3.074461  2.067390
  N     2.089925  0.599033  2.171223
  N     1.510811  3.952933  2.098653
  N    -0.054110 -0.114618  0.913088
  N    -0.353032  2.941969  0.771266
  N    -0.808632 -0.268443  4.732395
  N    -1.361167  3.220182  4.548299
  S    -1.513933 -0.419916  3.257953
  S    -1.955818  2.719767  3.032778
  S     1.512378  0.411350  0.647026
  S     1.174373  3.623952  0.561728
  S     0.793310  0.229581  4.617956
  S     0.206409  3.724896  4.561240
