16  
    
  C    -4.661691 -2.490318  1.696200
  C    -4.830845  1.163409  1.579224
  C    -5.932166 -2.938105  1.179581
  C    -5.976444  0.547910  0.975128
  N    -3.756268 -2.243586  0.781666
  N    -3.830666  1.423010  0.788049
  N    -5.911265 -3.133491 -0.129753
  N    -5.768575  0.275250 -0.298784
  N    -6.334891 -2.702776  3.640931
  N    -6.623119  0.835801  3.375227
  S    -7.238848 -3.084090  2.328086
  S    -7.305484  0.160516  2.029263
  S    -4.486643 -2.593469 -0.674729
  S    -4.237353  0.878276 -0.739416
  S    -4.789262 -2.142496  3.398043
  S    -5.090417  1.381708  3.333905
