16  
    
  C    -3.464995 -2.224863  1.866344
  C    -3.768909  1.969071  1.907969
  C    -4.548224 -3.001989  1.305626
  C    -4.742633  1.052813  1.279956
  N    -2.361025 -2.019518  1.120473
  N    -2.760555  2.367947  1.140743
  N    -4.345435 -3.315735  0.016169
  N    -4.433175  0.741561  0.034274
  N    -5.374645 -2.497102  3.674712
  N    -5.421194  1.335199  3.705660
  S    -5.969269 -3.144694  2.262318
  S    -5.912027  0.532826  2.333165
  S    -2.797395 -2.815447 -0.313098
  S    -3.058723  1.586466 -0.320802
  S    -3.764065 -2.025670  3.576955
  S    -4.160794  2.400403  3.519285
