16  
    
  C     1.744533  0.575305  3.028194
  C     1.891447  4.225911  3.301594
  C     0.493566  0.195507  2.467328
  C     0.603136  4.035217  2.699778
  N     2.710026  0.780724  2.163971
  N     2.944820  4.354852  2.535075
  N     0.512776  0.029539  1.135811
  N     0.685798  4.225337  1.424701
  N     0.171305  0.334323  4.967197
  N     0.196847  3.933619  5.218016
  S    -0.786176  0.061216  3.617861
  S    -0.716135  3.795868  3.810986
  S     2.124532  0.460428  0.658461
  S     2.349080  4.307691  0.965348
  S     1.856951  0.506892  4.744903
  S     1.814229  4.250546  5.061547
