16  
    
  C     1.793097  0.444801  3.143692
  C     1.969496  4.426976  3.352949
  C     0.561180  0.150483  2.423326
  C     0.792138  3.965258  2.687138
  N     2.872060  0.696055  2.392370
  N     2.936677  4.818814  2.568304
  N     0.699485  0.254584  1.100281
  N     0.835002  3.989779  1.382847
  N    -0.039650  0.016829  4.913534
  N     0.289719  4.003712  5.246008
  S    -0.800558 -0.245904  3.448347
  S    -0.545522  3.701961  3.804415
  S     2.287261  0.675214  0.827770
  S     2.402013  4.616323  0.979099
  S     1.609712  0.613989  4.870163
  S     1.912207  4.402795  5.062655
