16  
    
  C     3.296830  1.480744  3.581312
  C     3.101703  5.147853  3.410364
  C     2.058216  0.991081  3.031315
  C     1.980303  4.506271  2.742565
  N     4.321603  1.611362  2.739709
  N     4.056947  5.523728  2.574732
  N     2.048345  0.804218  1.701238
  N     2.155382  4.299956  1.454357
  N     1.734611  1.383508  5.596119
  N     1.153007  4.972560  5.102414
  S     0.855867  0.989589  4.280933
  S     0.611533  4.170335  3.732098
  S     3.627057  1.215006  1.239599
  S     3.630215  4.960038  1.108548
  S     3.275537  1.945953  5.264962
  S     2.771798  5.432416  5.126085
