16  
    
  C    -4.018552 -1.730855  1.650949
  C    -3.864033  1.482277  1.687245
  C    -5.208378 -2.243529  1.024936
  C    -5.147025  1.340536  1.098712
  N    -2.924221 -1.808695  0.870250
  N    -2.829317  1.588277  0.824892
  N    -5.081686 -2.516900 -0.269461
  N    -5.041380  1.091445 -0.197846
  N    -5.780903 -1.971368  3.555759
  N    -5.665545  1.521084  3.641680
  S    -6.538258 -2.263811  2.113841
  S    -6.519469  1.373486  2.258061
  S    -3.483694 -2.328276 -0.597842
  S    -3.476359  1.314107 -0.691451
  S    -4.193728 -1.644602  3.412262
  S    -4.030353  1.699049  3.465285
