16  
    
  C     0.551143 -0.136510  2.790609
  C     0.273007  3.578547  2.881272
  C    -0.708692 -0.486992  2.197671
  C    -0.905493  3.301425  2.127667
  N     1.529497  0.171921  1.943160
  N     1.288657  3.958406  2.106076
  N    -0.598884 -0.671092  0.896357
  N    -0.734008  3.095757  0.810875
  N    -1.113928 -0.499833  4.698123
  N    -1.546270  3.063095  4.662363
  S    -2.025118 -0.676127  3.314193
  S    -2.215161  2.795447  3.180268
  S     0.926938 -0.170433  0.391893
  S     0.798316  3.679020  0.558882
  S     0.470063  0.005506  4.512176
  S     0.116480  3.481307  4.645124
