16  
    
  C    -1.256213 -0.836817  2.123035
  C    -1.489404  3.014150  2.060119
  C    -2.476068 -1.364522  1.525668
  C    -2.599310  2.358681  1.330685
  N    -0.252759 -0.684217  1.305930
  N    -0.592162  3.462472  1.168146
  N    -2.426827 -1.450933  0.230005
  N    -2.393444  2.115590  0.015467
  N    -3.137474 -1.034642  4.013257
  N    -3.259696  2.620495  3.798751
  S    -3.843057 -1.649124  2.606320
  S    -3.884044  1.907082  2.439203
  S    -0.869272 -0.986467 -0.240194
  S    -0.942892  2.871263 -0.328983
  S    -1.460588 -0.781296  3.845787
  S    -1.817468  3.420554  3.703694
