16  
    
  C    -5.714471 -2.957648  1.477181
  C    -6.071649  0.975275  1.428183
  C    -6.873513 -3.547857  0.840818
  C    -7.236876  0.261558  0.893902
  N    -4.675037 -2.892318  0.628971
  N    -5.136346  1.358209  0.538241
  N    -6.783556 -3.608019 -0.497046
  N    -7.207804  0.094213 -0.439374
  N    -7.525475 -3.578986  3.311905
  N    -7.470341  0.170089  3.508828
  S    -8.229777 -3.811865  1.835832
  S    -8.310328 -0.343660  2.177964
  S    -5.228575 -3.293286 -0.864840
  S    -5.771872  0.790075 -0.941888
  S    -6.055119 -2.768047  3.247809
  S    -6.102895  0.979134  3.180647
