16  
    
  C     1.920974  0.485397  3.075084
  C     1.876347  4.288167  3.259954
  C     0.592584  0.249863  2.563361
  C     0.619961  3.903717  2.662098
  N     2.880346  0.524599  2.159151
  N     2.872436  4.257523  2.381474
  N     0.529584  0.180057  1.258234
  N     0.612897  3.879034  1.334563
  N     0.303106  0.333787  5.105808
  N     0.101924  4.162625  5.161267
  S    -0.681098  0.140649  3.789401
  S    -0.715450  4.045296  3.730462
  S     2.074945  0.393953  0.671796
  S     2.210630  4.168882  0.806979
  S     1.899599  0.775364  4.855584
  S     1.815805  4.177033  5.010396
