16  
    
  C    -1.062590 -0.749230  2.315095
  C    -0.700931  2.898588  2.585691
  C    -2.282254 -1.240162  1.634461
  C    -1.929797  2.538798  1.936751
  N    -0.050887 -0.723951  1.439480
  N     0.325895  3.068550  1.770670
  N    -2.046308 -1.703828  0.374376
  N    -1.872558  2.458683  0.631725
  N    -2.885909 -0.628575  4.018188
  N    -2.570371  2.902893  4.427149
  S    -3.484058 -1.550210  2.797162
  S    -3.349174  2.450342  2.994073
  S    -0.518882 -1.312573 -0.023456
  S    -0.265517  2.677174  0.223990
  S    -1.265948 -0.259514  3.936625
  S    -0.918966  3.290412  4.261224
