16  
    
  C    -3.695979 -2.459922  1.791847
  C    -3.428789  1.710268  1.792088
  C    -4.867398 -2.924383  1.125312
  C    -4.553074  1.045407  1.173105
  N    -2.602651 -2.367828  0.985652
  N    -2.506789  2.011259  0.857142
  N    -4.733462 -2.925661 -0.194096
  N    -4.331493  0.693437 -0.126340
  N    -5.418622 -2.764265  3.632777
  N    -5.302517  1.517988  3.649133
  S    -6.183688 -3.089692  2.156446
  S    -5.913508  0.764369  2.285130
  S    -3.171720 -2.583675 -0.526673
  S    -2.871475  1.378558 -0.598998
  S    -3.797576 -2.486691  3.559889
  S    -3.724272  2.125449  3.488571
