16  
    
  C     0.916166  0.164239  2.864884
  C     0.559567  3.584500  2.966740
  C    -0.337572 -0.324363  2.267855
  C    -0.833266  3.635559  2.428150
  N     1.896324  0.353438  1.991815
  N     1.441659  4.000564  2.077496
  N    -0.283372 -0.517673  0.938962
  N    -0.882044  3.716112  1.101092
  N    -0.843061 -0.028000  4.801523
  N    -1.162364  3.290910  4.932466
  S    -1.697443 -0.190635  3.389267
  S    -2.079996  3.320464  3.564867
  S     1.241706 -0.055686  0.527233
  S     0.719180  3.879846  0.570610
  S     0.779154  0.294508  4.591779
  S     0.527001  3.379947  4.645364
