16  
    
  C    -4.187938 -2.443110  1.615258
  C    -4.259443  1.633411  1.970467
  C    -5.374926 -2.915310  1.024814
  C    -5.436804  1.086581  1.304641
  N    -3.179061 -2.324766  0.730607
  N    -3.179538  1.756517  1.176309
  N    -5.375340 -3.263674 -0.238001
  N    -5.211085  0.639110  0.058090
  N    -5.909192 -2.452751  3.483583
  N    -6.209041  1.590777  3.758275
  S    -6.752711 -2.784251  2.069478
  S    -6.827026  0.998859  2.324532
  S    -3.834628 -2.805387 -0.703989
  S    -3.568191  1.080357 -0.284310
  S    -4.345524 -2.013996  3.226645
  S    -4.624968  2.007522  3.627653
