16  
    
  C     1.539523  0.731466  2.867385
  C     0.861557  3.985614  2.509067
  C     0.266671  0.321942  2.245517
  C    -0.318622  3.519591  1.838553
  N     2.532296  0.991977  2.044865
  N     1.816402  4.395920  1.653645
  N     0.333687  0.283574  0.931564
  N    -0.110421  3.174354  0.569571
  N    -0.136374  0.217938  4.691176
  N    -0.919472  3.742197  4.339772
  S    -1.027731  0.005156  3.360325
  S    -1.561709  3.134140  2.970232
  S     1.877843  0.676045  0.537297
  S     1.473050  3.696204  0.199859
  S     1.410648  0.806054  4.621751
  S     0.697274  4.301246  4.258281
