16  
    
  C    -2.589373 -1.668421  1.901290
  C    -3.162425  1.960269  1.725513
  C    -3.905783 -1.979498  1.340849
  C    -4.278930  1.400388  0.993986
  N    -1.524319 -1.871159  1.092501
  N    -2.106544  2.389065  1.022094
  N    -3.811504 -2.159935  0.010905
  N    -3.979022  1.229093 -0.286949
  N    -4.288545 -1.649119  3.872897
  N    -5.038505  1.562112  3.426461
  S    -5.231363 -1.872993  2.508674
  S    -5.655218  1.024506  1.964904
  S    -2.232828 -2.090502 -0.421222
  S    -2.489764  1.873731 -0.536713
  S    -2.667909 -1.495003  3.623488
  S    -3.445883  2.232577  3.437049
