16  
    
  C    -0.030331 -0.607611  2.509206
  C    -0.175179  3.426563  2.569835
  C    -1.248327 -1.101263  1.812819
  C    -1.092786  2.516919  2.024535
  N     0.898718 -0.181359  1.648022
  N     0.873342  3.665039  1.786572
  N    -1.130153 -1.200909  0.488202
  N    -0.904889  2.254558  0.746482
  N    -1.786616 -0.944178  4.383273
  N    -1.922050  2.836772  4.432688
  S    -2.544685 -1.309597  2.925150
  S    -2.573237  2.324186  2.938209
  S     0.351883 -0.547556  0.161256
  S     0.420706  3.114808  0.279147
  S    -0.211729 -0.537313  4.288708
  S    -0.398834  3.472250  4.290749
