16  
    
  C    -1.348982 -0.968097  2.198696
  C    -1.515249  3.022607  2.006304
  C    -2.542962 -1.328214  1.463058
  C    -2.570644  2.205354  1.371128
  N    -0.294871 -0.761859  1.481766
  N    -0.446249  3.229282  1.224507
  N    -2.386779 -1.374945  0.159326
  N    -2.448275  2.086988  0.052356
  N    -3.148500 -1.251238  3.956746
  N    -3.325393  2.497264  3.838979
  S    -3.851720 -1.650748  2.530924
  S    -3.870856  1.738918  2.436672
  S    -0.783235 -1.006210 -0.081077
  S    -0.931733  2.714961 -0.304612
  S    -1.559114 -0.755983  3.957451
  S    -1.909202  3.346660  3.627881
