16  
    
  C     1.599513  0.830982  3.249442
  C     2.036973  4.566228  3.241346
  C     0.543159  0.202320  2.490409
  C     0.865416  3.978911  2.676095
  N     2.617608  1.182332  2.527646
  N     3.093208  4.679706  2.393334
  N     0.844921  0.079052  1.185431
  N     0.922261  3.970283  1.342842
  N    -0.210631  0.390592  4.966687
  N     0.252630  4.331219  5.196168
  S    -0.902611 -0.070365  3.520196
  S    -0.537241  3.762388  3.857646
  S     2.350994  0.734704  0.959993
  S     2.443747  4.269059  0.921311
  S     1.263766  1.059599  4.986990
  S     1.835296  4.946466  4.959033
