16  
    
  C     1.006332  0.201498  3.008611
  C     0.987146  4.178791  2.632845
  C    -0.246321 -0.049405  2.405738
  C    -0.142135  3.334126  2.215341
  N     2.042277  0.242243  2.135285
  N     1.960104  4.106160  1.755093
  N    -0.209439 -0.103507  1.068359
  N    -0.030292  2.845912  0.988383
  N    -0.749967 -0.178786  4.943836
  N    -0.755762  4.335085  4.510704
  S    -1.628863 -0.198653  3.480022
  S    -1.471040  3.422493  3.373985
  S     1.409964  0.039321  0.618028
  S     1.474457  3.342858  0.400807
  S     0.939935  0.206895  4.766120
  S     0.870612  4.777065  4.252017
