16  
    
  C     2.350721  1.053842  3.239688
  C     2.951814  5.247076  3.964645
  C     1.231151  0.499340  2.519788
  C     1.683038  4.975526  3.327544
  N     3.447825  1.222001  2.533313
  N     3.960312  5.346575  3.105860
  N     1.446466  0.271252  1.216346
  N     1.790194  4.666040  2.047974
  N     0.527026  1.120682  5.003506
  N     1.226787  5.828867  5.681180
  S    -0.084823  0.382502  3.646774
  S     0.391029  5.055067  4.472728
  S     3.053307  0.763420  0.989382
  S     3.413433  4.856978  1.686392
  S     2.234867  1.318982  4.915415
  S     2.841005  5.919150  5.520113
