16  
    
  C    -0.627701 -0.421625  2.668443
  C    -0.390826  3.276634  2.700409
  C    -1.831801 -1.056416  2.111535
  C    -1.418136  2.526235  2.081558
  N     0.396628 -0.338180  1.782642
  N     0.587962  3.667568  1.891571
  N    -1.807226 -1.333334  0.789018
  N    -1.112867  2.186654  0.844855
  N    -2.179311 -0.872847  4.652703
  N    -2.280131  3.052255  4.489577
  S    -3.113747 -0.997902  3.287956
  S    -2.808785  2.309255  3.081899
  S    -0.224192 -0.853650  0.326496
  S     0.413557  2.817599  0.514208
  S    -0.602310 -0.350178  4.425786
  S    -0.712351  3.731208  4.364142
