16  
    
  C    -2.531897 -1.230490  2.188047
  C    -2.572932  2.515465  2.378300
  C    -3.738528 -1.705074  1.513896
  C    -3.730205  1.882072  1.719098
  N    -1.529683 -0.958857  1.375958
  N    -1.688119  2.955000  1.476914
  N    -3.605512 -1.813033  0.210486
  N    -3.621195  1.768468  0.419048
  N    -4.278890 -1.788738  4.011402
  N    -4.378736  2.021114  4.185437
  S    -5.070630 -2.020967  2.556021
  S    -5.052248  1.396641  2.791314
  S    -2.067691 -1.432265 -0.152838
  S    -2.247243  2.585182 -0.025286
  S    -2.797321 -1.035929  3.966448
  S    -2.835729  2.581219  4.085019
