16  
    
  C    -0.020915 -0.528910  2.459995
  C    -0.163371  3.279612  2.609010
  C    -1.198928 -1.136517  1.870102
  C    -1.264802  2.556386  1.966618
  N     0.985947 -0.307171  1.644893
  N     0.758270  3.752875  1.785167
  N    -1.162175 -1.145949  0.556532
  N    -1.011151  2.240325  0.696825
  N    -1.791158 -0.906529  4.381926
  N    -1.920588  2.829631  4.434856
  S    -2.546762 -1.302613  2.986591
  S    -2.600701  2.306490  3.019828
  S     0.364247 -0.574345  0.077145
  S     0.409273  3.029226  0.318674
  S    -0.172877 -0.547974  4.164657
  S    -0.399191  3.480453  4.314363
