16  
    
  C     3.270655  1.639639  3.624740
  C     3.112745  5.070049  3.400908
  C     2.034357  1.133066  3.020302
  C     1.975937  4.574290  2.709526
  N     4.320362  1.627374  2.801172
  N     4.151726  5.397816  2.626060
  N     2.077712  0.835414  1.710651
  N     2.230078  4.286748  1.396416
  N     1.493620  1.470260  5.537247
  N     1.190178  4.995188  5.149104
  S     0.684800  0.983060  4.151830
  S     0.647208  4.163526  3.825237
  S     3.670240  1.074884  1.303919
  S     3.692037  4.997058  1.126566
  S     3.054859  2.048799  5.281249
  S     2.820425  5.348058  5.046557
