16  
    
  C    -1.438539 -1.108919  2.629107
  C    -1.526873  2.633726  2.294840
  C    -2.528703 -1.629333  1.805091
  C    -2.671709  2.140890  1.599642
  N    -0.315451 -0.917236  1.926190
  N    -0.395101  2.721120  1.623817
  N    -2.293842 -1.554908  0.506723
  N    -2.362174  1.862931  0.352817
  N    -3.343231 -1.702327  4.175891
  N    -3.451914  2.457902  4.032662
  S    -3.944059 -1.956281  2.661754
  S    -4.046265  1.782819  2.621132
  S    -0.689357 -1.185253  0.358728
  S    -0.801599  2.295754  0.068321
  S    -1.883007 -0.967182  4.295785
  S    -1.882109  3.045731  4.001574
