16  
    
  C     3.336408  1.473010  3.590471
  C     3.083684  5.152221  3.410578
  C     2.062421  0.981727  3.078748
  C     1.948225  4.619350  2.757040
  N     4.331662  1.643397  2.733203
  N     4.093107  5.543882  2.610944
  N     2.081500  0.813091  1.760764
  N     2.178554  4.266547  1.470406
  N     1.766802  1.343633  5.627624
  N     1.185012  4.898791  5.136136
  S     0.883287  0.993527  4.268189
  S     0.620934  4.197555  3.704242
  S     3.601006  1.247714  1.213615
  S     3.578116  4.934905  1.117025
  S     3.334172  1.918238  5.273087
  S     2.756012  5.455277  5.091791
