16  
    
  C     2.490695  1.216304  3.355982
  C     2.857231  5.237097  3.775784
  C     1.381978  0.646969  2.649372
  C     1.699267  4.501854  3.296429
  N     3.580496  1.366816  2.630349
  N     3.873765  5.350497  2.935327
  N     1.678518  0.361007  1.385547
  N     1.799745  4.162236  2.012643
  N     0.563478  0.870018  5.048318
  N     1.222308  5.005552  5.805281
  S    -0.146175  0.455608  3.568578
  S     0.291859  4.663991  4.490001
  S     3.281235  0.780444  1.121725
  S     3.285673  4.698628  1.470533
  S     2.165251  1.382669  5.037014
  S     2.693408  5.704035  5.486643
