16  
    
  C     3.313146  1.472833  3.584312
  C     3.094384  5.139274  3.402309
  C     2.051042  0.979369  3.064701
  C     1.957371  4.588005  2.759594
  N     4.338752  1.634152  2.743912
  N     4.079902  5.541709  2.598746
  N     2.064554  0.808495  1.735309
  N     2.174725  4.275448  1.460681
  N     1.752657  1.356449  5.616926
  N     1.170647  4.927626  5.123407
  S     0.878121  0.993496  4.271269
  S     0.619171  4.186380  3.710562
  S     3.608865  1.234909  1.221558
  S     3.592963  4.943121  1.116834
  S     3.313794  1.929910  5.270141
  S     2.762567  5.447681  5.106076
