16  
    
  C    -2.192229 -0.883116  2.313904
  C    -2.096743  2.469792  1.968449
  C    -3.400559 -1.196785  1.603557
  C    -3.312523  1.955998  1.408281
  N    -1.119786 -0.777739  1.511929
  N    -1.095724  2.539067  1.118469
  N    -3.220057 -1.621321  0.311455
  N    -3.307771  1.769664  0.085702
  N    -3.888598 -1.212121  4.188365
  N    -3.827293  2.354814  3.887006
  S    -4.758778 -1.251190  2.744624
  S    -4.678794  1.927913  2.527543
  S    -1.580928 -1.329755 -0.006334
  S    -1.751448  2.065726 -0.377289
  S    -2.310588 -0.709489  4.020924
  S    -2.201455  2.550493  3.664677
