16  
    
  C     2.383060  1.189868  3.430388
  C     2.381579  4.793579  3.313028
  C     1.168095  0.768164  2.717413
  C     1.129749  4.422869  2.672275
  N     3.395170  1.594767  2.628226
  N     3.390318  5.150505  2.480367
  N     1.293851  0.723952  1.412938
  N     1.270612  4.257137  1.358010
  N     0.554157  0.598093  5.125244
  N     0.511455  4.214751  5.246016
  S    -0.245823  0.463255  3.694622
  S    -0.163329  3.851793  3.723886
  S     2.806790  1.294500  1.006940
  S     2.816136  4.715196  0.911352
  S     2.133939  0.996518  5.181949
  S     2.211440  4.715816  5.100285
