16  
    
  C     2.655057  1.230187  3.583340
  C     2.865093  5.044090  3.615486
  C     1.487586  0.843941  2.800990
  C     1.610592  4.957597  2.952620
  N     3.791470  1.548532  2.957048
  N     3.941415  4.901969  2.855831
  N     1.739781  0.865646  1.483654
  N     1.703187  4.793432  1.627184
  N     0.848461  0.813539  5.374078
  N     1.178122  5.368933  5.559620
  S     0.154420  0.526731  3.901053
  S     0.328043  5.148048  4.123225
  S     3.304567  1.369946  1.281771
  S     3.345510  4.926658  1.280492
  S     2.466038  1.097998  5.295398
  S     2.849214  5.247983  5.316995
