16  
    
  C    -1.707527 -0.954526  2.087167
  C    -1.744057  2.366093  1.987944
  C    -3.009604 -1.273719  1.522463
  C    -2.911589  2.000220  1.281874
  N    -0.750043 -0.980702  1.207732
  N    -0.673305  2.512809  1.214166
  N    -3.018406 -1.554306  0.259037
  N    -2.789076  1.824861 -0.032566
  N    -3.461098 -1.036824  4.068786
  N    -3.584113  1.997535  3.741685
  S    -4.303260 -1.179609  2.652893
  S    -4.396757  1.954771  2.321540
  S    -1.453556 -1.377313 -0.270674
  S    -1.199774  2.116702 -0.363627
  S    -1.793256 -0.975501  3.871699
  S    -1.984476  2.368985  3.673136
