16  
    
  C     1.104714  0.044795  2.950881
  C     0.867642  3.805560  2.992391
  C    -0.172673 -0.429120  2.476611
  C    -0.377472  3.271143  2.439175
  N     1.998838  0.203073  1.958256
  N     1.870185  3.832228  2.093855
  N    -0.268332 -0.584347  1.166274
  N    -0.440596  3.223025  1.088530
  N    -0.426723 -0.104624  5.106384
  N    -0.674159  3.732373  4.990548
  S    -1.336982 -0.513969  3.746476
  S    -1.619972  3.347542  3.632483
  S     1.238591 -0.198866  0.519450
  S     1.182018  3.411040  0.604520
  S     1.089663  0.307815  4.633070
  S     0.866153  4.153304  4.671417
