16  
    
  C     2.949556  1.553427  3.394759
  C     2.954605  5.088171  3.233761
  C     1.689931  1.323158  2.695019
  C     1.740929  4.762627  2.565932
  N     4.039321  1.564903  2.636463
  N     4.064273  5.203120  2.531456
  N     1.838095  1.249586  1.384693
  N     1.981479  4.494496  1.289176
  N     1.220415  1.072708  5.209545
  N     1.180391  4.969000  5.034280
  S     0.440952  0.910167  3.775854
  S     0.383138  4.507704  3.629236
  S     3.432143  1.394038  1.017165
  S     3.560846  4.757886  0.993315
  S     2.795582  1.591335  5.159657
  S     2.807955  5.341613  4.937702
