16  
    
  C    -3.848664 -2.305823  1.646815
  C    -3.529502  2.056331  1.648279
  C    -5.136691 -2.455124  1.032722
  C    -4.690704  1.399236  1.026985
  N    -2.872039 -1.879333  0.785258
  N    -2.579125  2.170104  0.729406
  N    -5.056568 -2.475406 -0.297623
  N    -4.638343  1.263220 -0.299252
  N    -5.642636 -2.453786  3.573447
  N    -5.187791  1.527446  3.589395
  S    -6.484144 -2.720533  2.183806
  S    -5.930670  0.969160  2.210574
  S    -3.530158 -2.030338 -0.731661
  S    -3.120099  1.742522 -0.724595
  S    -3.958743 -2.422111  3.421791
  S    -3.669212  2.128482  3.340340
