16  
    
  C    -0.120384 -0.217829  2.525083
  C    -0.349060  3.363901  2.488967
  C    -1.300016 -0.739969  1.823101
  C    -1.633537  2.968699  1.974867
  N     0.890834  0.122659  1.694426
  N     0.614780  3.494263  1.590843
  N    -1.028032 -1.108303  0.594115
  N    -1.608758  2.657701  0.702071
  N    -2.054540 -0.654948  4.300670
  N    -1.999465  3.159566  4.451267
  S    -2.703481 -1.096801  2.800304
  S    -2.912737  2.966476  3.129023
  S     0.482428 -0.604185  0.225979
  S    -0.095554  3.099300  0.129378
  S    -0.496596 -0.074673  4.221680
  S    -0.378632  3.387057  4.285459
