16  
    
  C    -0.131756 -0.348800  2.638998
  C     0.090768  3.502892  2.337198
  C    -1.425366 -0.667983  2.031972
  C    -1.175486  3.217679  1.677858
  N     0.899273 -0.370104  1.778325
  N     1.098005  3.580195  1.498122
  N    -1.405439 -0.594041  0.698148
  N    -1.174286  3.263300  0.354920
  N    -1.874697 -0.395064  4.565433
  N    -1.575229  3.464073  4.252615
  S    -2.739097 -0.711935  3.158650
  S    -2.440051  3.036965  2.878192
  S     0.188712 -0.408611  0.247438
  S     0.449111  3.498039 -0.051304
  S    -0.261778 -0.180276  4.343832
  S     0.025789  3.714869  4.083940
