16  
    
  C    -1.389202 -1.170933  2.670669
  C    -1.580626  2.673004  2.350977
  C    -2.533582 -1.470845  1.823898
  C    -2.679262  2.175179  1.609962
  N    -0.279051 -0.953379  1.987459
  N    -0.462685  2.746194  1.668206
  N    -2.284340 -1.608558  0.535250
  N    -2.503699  1.946743  0.306955
  N    -3.424679 -1.741883  4.311632
  N    -3.479850  2.487375  4.062328
  S    -4.015950 -1.981063  2.742816
  S    -4.056275  1.875752  2.626704
  S    -0.674973 -1.199658  0.350292
  S    -0.842564  2.224758  0.133245
  S    -1.885910 -1.022900  4.327228
  S    -1.898465  3.000526  4.053922
