16  
    
  C     0.792114  0.288874  2.887598
  C     0.627259  3.676248  2.715752
  C    -0.432809 -0.182260  2.335754
  C    -0.634689  3.407884  2.134838
  N     1.729850  0.581400  1.978770
  N     1.590538  3.860356  1.827123
  N    -0.371152 -0.500919  1.047178
  N    -0.609454  3.255773  0.809363
  N    -0.931090  0.151371  4.878151
  N    -0.944364  3.335213  4.722866
  S    -1.752626 -0.241635  3.524769
  S    -1.916364  3.171255  3.389091
  S     1.114162  0.061907  0.508216
  S     0.894267  3.735924  0.381044
  S     0.630524  0.570905  4.593649
  S     0.674746  3.522148  4.456657
