16  
    
  C     0.036776 -0.755193  2.574305
  C    -0.333973  3.210743  2.572468
  C    -1.236637 -1.189510  1.975958
  C    -1.519360  2.617886  2.079716
  N     0.970479 -0.489401  1.680597
  N     0.699353  3.307581  1.734111
  N    -1.182238 -1.524804  0.709319
  N    -1.453264  2.443944  0.761203
  N    -1.736825 -0.686187  4.471607
  N    -1.900903  2.911691  4.612150
  S    -2.533334 -1.141170  3.129440
  S    -2.775446  2.458914  3.285391
  S     0.369205 -0.994350  0.199323
  S     0.042016  2.989972  0.257296
  S    -0.110310 -0.362289  4.217722
  S    -0.303581  3.297221  4.304339
