16  
    
  C     1.105305  0.298156  3.040591
  C     0.429061  3.782907  3.001690
  C    -0.102725 -0.096111  2.295368
  C    -0.446634  2.970103  2.161118
  N     2.173681  0.461696  2.278230
  N     1.484087  4.194942  2.305190
  N     0.074263 -0.137845  0.974025
  N    -0.165073  3.047928  0.832253
  N    -0.771356 -0.106958  4.782291
  N    -1.468137  3.145707  4.546806
  S    -1.465224 -0.292576  3.278189
  S    -1.858727  2.530355  3.055659
  S     1.668918  0.160517  0.759406
  S     1.306248  3.729856  0.774184
  S     0.830424  0.281509  4.716495
  S     0.062689  3.795439  4.702982
