16  
    
  C     2.523577  1.217374  3.371231
  C     2.831817  5.057493  3.782294
  C     1.466180  0.633145  2.622298
  C     1.575062  4.638639  3.222715
  N     3.584182  1.377608  2.581149
  N     3.745378  5.218784  2.809833
  N     1.689825  0.281040  1.370172
  N     1.595554  4.236180  1.949582
  N     0.575256  0.875183  5.067344
  N     1.155511  4.925456  5.683752
  S     0.027258  0.526893  3.492532
  S     0.354185  4.374862  4.369748
  S     3.223576  0.808824  1.094328
  S     3.103818  4.587852  1.450230
  S     2.138458  1.379849  5.093538
  S     2.607881  5.664124  5.420591
