16  
    
  C    -4.065445 -2.262472  1.757826
  C    -4.047267  1.408351  1.680389
  C    -5.355318 -2.357264  1.199576
  C    -5.370679  1.293922  1.011855
  N    -3.082978 -2.235195  0.860596
  N    -2.958760  1.320969  0.903928
  N    -5.427886 -2.405103 -0.116132
  N    -5.211125  1.121471 -0.286219
  N    -5.728793 -1.817640  3.701087
  N    -5.882389  1.589395  3.575743
  S    -6.580671 -2.283216  2.374222
  S    -6.720326  1.321189  2.109887
  S    -3.827396 -2.257539 -0.613740
  S    -3.539130  1.121121 -0.688962
  S    -4.076269 -1.824264  3.432019
  S    -4.236220  1.677489  3.370476
