16  
    
  C    -2.517820 -1.870710  1.954040
  C    -3.078698  2.147248  1.749896
  C    -3.787580 -2.168940  1.325701
  C    -4.226033  1.636956  0.976617
  N    -1.512541 -1.998271  1.075645
  N    -2.048516  2.507677  0.961601
  N    -3.806292 -2.242496 -0.026878
  N    -4.003298  1.480816 -0.346402
  N    -4.286137 -1.730587  3.824812
  N    -5.002697  1.598944  3.504831
  S    -5.088848 -1.818152  2.401154
  S    -5.482426  0.972774  2.062219
  S    -2.230980 -2.177660 -0.422778
  S    -2.489695  1.995820 -0.624964
  S    -2.639064 -1.592666  3.675727
  S    -3.434362  2.234267  3.443693
