16  
    
  C    -1.413943 -0.911795  2.358974
  C    -1.530381  2.820482  2.018205
  C    -2.506438 -1.448012  1.581994
  C    -2.599682  2.011485  1.401523
  N    -0.273340 -0.709588  1.679236
  N    -0.506474  3.172063  1.262374
  N    -2.284345 -1.523429  0.277905
  N    -2.322485  1.794973  0.132452
  N    -3.296051 -1.506586  3.992009
  N    -3.366347  2.396287  3.862180
  S    -3.952530 -1.694417  2.491796
  S    -3.882944  1.640806  2.478503
  S    -0.677702 -1.029390  0.071992
  S    -0.825373  2.445203 -0.186895
  S    -1.751227 -0.901292  4.079189
  S    -1.875611  3.122499  3.734305
