16  
    
  C     3.158189  1.551739  3.284193
  C     3.102337  4.866278  3.406170
  C     1.872843  1.243551  2.725359
  C     1.834195  4.704448  2.679291
  N     4.193398  1.645826  2.441933
  N     4.163005  5.135081  2.649596
  N     1.967131  1.032114  1.421729
  N     2.033095  4.608155  1.360543
  N     1.344773  1.635278  5.168165
  N     1.234418  5.005031  5.165997
  S     0.528232  1.470637  3.752037
  S     0.496669  4.660068  3.734973
  S     3.537798  1.237279  0.911317
  S     3.654024  4.871529  1.073779
  S     2.994467  1.817605  5.013548
  S     2.868969  5.273374  5.059241
