16  
    
  C    -4.201743 -1.973317  1.934196
  C    -4.184215  1.353007  1.845201
  C    -5.491894 -2.325349  1.444950
  C    -5.437253  1.304443  1.057449
  N    -3.265994 -2.067512  0.986030
  N    -3.117147  1.379033  1.044976
  N    -5.616138 -2.501386  0.128905
  N    -5.277540  1.089058 -0.270212
  N    -5.697700 -2.277646  3.954995
  N    -6.083064  1.566051  3.582254
  S    -6.714108 -2.286421  2.657433
  S    -6.817437  1.247806  2.147184
  S    -4.027753 -2.382127 -0.445036
  S    -3.562778  1.150303 -0.540620
  S    -4.048618 -2.042865  3.682707
  S    -4.471657  1.504908  3.533796
