16  
    
  C    -1.023859 -0.749049  2.197173
  C    -0.772339  2.966351  2.516259
  C    -2.200730 -1.304415  1.648612
  C    -1.997995  2.478662  1.909343
  N     0.071763 -0.696481  1.466823
  N     0.308937  2.982477  1.721972
  N    -2.066088 -1.696103  0.429549
  N    -1.855393  2.501114  0.568912
  N    -2.908055 -0.640150  4.027189
  N    -2.482638  2.844802  4.342251
  S    -3.520524 -1.599572  2.792858
  S    -3.307809  2.428068  3.014685
  S    -0.431264 -1.327042 -0.006395
  S    -0.257621  2.709036  0.209596
  S    -1.266363 -0.254926  3.883489
  S    -0.938198  3.277762  4.223629
