16  
    
  C     2.324463  0.901565  3.536584
  C     2.048629  5.018357  3.198906
  C     1.032667  0.592304  2.976700
  C     0.887340  4.584000  2.412372
  N     3.290977  0.949899  2.638365
  N     3.140649  5.236363  2.486608
  N     0.973984  0.390748  1.690326
  N     1.062641  4.455358  1.108197
  N     0.615031  0.894892  5.432354
  N     0.005355  4.673045  4.870575
  S    -0.267201  0.672743  4.094747
  S    -0.543548  4.148076  3.362937
  S     2.593813  0.657565  1.155527
  S     2.658183  4.912080  0.899390
  S     2.239806  1.145497  5.234355
  S     1.568203  5.268309  4.797857
