16  
    
  C    -1.802211 -1.038429  2.341891
  C    -1.907180  2.450537  2.523342
  C    -3.111511 -1.234434  1.749830
  C    -3.041634  1.900981  1.867307
  N    -0.800024 -1.033861  1.496778
  N    -0.799532  2.594784  1.790638
  N    -3.094842 -1.481408  0.437070
  N    -2.901738  1.863018  0.553468
  N    -3.359136 -1.237135  4.377106
  N    -3.696095  2.082766  4.298800
  S    -4.290642 -1.390292  3.052638
  S    -4.398159  1.611806  2.885288
  S    -1.470975 -1.364666 -0.014748
  S    -1.280900  2.226549  0.239992
  S    -1.775176 -0.696371  4.072965
  S    -2.103490  2.570226  4.279251
