16  
    
  C     2.299839  0.834724  3.533752
  C     1.932798  5.126525  3.125676
  C     1.000483  0.572140  2.955409
  C     0.851411  4.505144  2.391212
  N     3.325520  0.881987  2.676303
  N     3.127723  5.213878  2.483422
  N     0.999483  0.444508  1.616026
  N     1.091641  4.441438  1.080885
  N     0.591492  0.953821  5.522088
  N     0.038742  4.748719  4.808497
  S    -0.250973  0.636669  4.111113
  S    -0.530411  4.143209  3.401133
  S     2.615020  0.660965  1.156447
  S     2.672155  4.902472  0.900150
  S     2.255923  1.148535  5.218748
  S     1.536859  5.269429  4.816843
