16  
    
  C     1.579525  0.717007  2.854643
  C     0.825598  4.210818  2.446885
  C     0.349433  0.340944  2.221051
  C    -0.264202  3.389631  1.891281
  N     2.557752  0.854407  1.983340
  N     1.925821  4.265523  1.668611
  N     0.366188  0.266706  0.894163
  N    -0.136314  3.116218  0.597729
  N    -0.188862  0.369740  4.839642
  N    -0.860373  3.809939  4.376137
  S    -0.912878 -0.046889  3.356568
  S    -1.616931  3.119023  3.017802
  S     1.926663  0.647352  0.425468
  S     1.361553  3.654957  0.178609
  S     1.419195  0.865704  4.587934
  S     0.703583  4.182025  4.157906
