16  
    
  C     2.538603  1.130813  3.254099
  C     2.543855  4.656560  3.533728
  C     1.317554  0.812362  2.501795
  C     1.343283  4.336570  2.772463
  N     3.605388  1.294130  2.487351
  N     3.525879  5.034611  2.737010
  N     1.437968  0.841695  1.154863
  N     1.487470  4.304068  1.460709
  N     0.653312  0.779034  5.021520
  N     0.544434  4.419854  5.156210
  S     0.019085  0.280333  3.512784
  S    -0.024927  3.929587  3.749837
  S     3.036684  1.125999  0.854168
  S     3.060100  4.748943  1.110463
  S     2.334174  0.958407  4.999665
  S     2.110905  4.951083  5.240289
