16  
    
  C     2.127326  1.275164  3.438947
  C     2.268889  4.586791  3.236786
  C     0.958169  0.821816  2.709785
  C     1.020758  4.298253  2.557540
  N     3.183285  1.557748  2.675026
  N     3.247367  4.953195  2.433637
  N     1.128436  0.639908  1.402158
  N     1.013855  4.456863  1.241952
  N     0.536278  0.766085  5.239138
  N     0.601537  4.244874  5.176694
  S    -0.328116  0.483751  3.878862
  S    -0.210503  3.862044  3.699124
  S     2.743850  1.106694  1.121495
  S     2.602431  4.881585  0.910814
  S     2.134374  1.127843  5.131978
  S     2.242959  4.764487  4.937148
