16  
    
  C    -5.336602 -2.437138  1.432222
  C    -5.378069  1.143696  1.302868
  C    -6.537752 -3.008518  0.867910
  C    -6.552179  0.582992  0.660700
  N    -4.366568 -2.152285  0.536009
  N    -4.320770  1.464468  0.521198
  N    -6.563232 -2.918109 -0.460085
  N    -6.435728  0.409420 -0.655393
  N    -7.102597 -2.662684  3.371364
  N    -7.152062  0.883283  3.193464
  S    -7.915471 -3.060872  1.946099
  S    -7.819933  0.104126  1.773833
  S    -5.066430 -2.425424 -0.953326
  S    -4.876314  0.977767 -1.029534
  S    -5.491350 -2.188911  3.163310
  S    -5.498547  1.237549  3.061549
