16  
    
  C     2.695726  1.359468  3.673545
  C     2.903071  5.279340  3.586806
  C     1.483422  0.897501  3.002456
  C     1.729281  4.825293  2.845582
  N     3.758964  1.576503  2.915196
  N     4.001014  5.463024  2.857030
  N     1.646059  0.736601  1.678556
  N     1.938345  4.922848  1.531342
  N     1.028787  1.148950  5.556471
  N     1.106973  4.702925  5.405940
  S     0.187500  0.747702  4.175150
  S     0.295487  4.758978  3.966429
  S     3.174077  1.203694  1.310126
  S     3.543609  5.201926  1.241463
  S     2.676941  1.539613  5.413963
  S     2.676298  5.342145  5.331478
