16  
    
  C     0.655394  0.263315  3.017307
  C     0.703306  3.862532  2.867083
  C    -0.604954  0.010821  2.422523
  C    -0.481982  3.340949  2.302017
  N     1.706059  0.363158  2.181512
  N     1.724098  3.960809  1.977953
  N    -0.590653 -0.233158  1.109491
  N    -0.517320  3.304724  0.970928
  N    -1.043468  0.276066  4.928118
  N    -0.999733  3.595273  4.782657
  S    -1.918893 -0.007622  3.543160
  S    -1.870480  3.227713  3.413323
  S     1.028132  0.005722  0.704400
  S     1.035412  3.678428  0.450619
  S     0.587082  0.478112  4.761936
  S     0.634438  3.947956  4.576245
