16  
    
  C     2.824235  1.502566  3.611166
  C     2.936795  5.298836  3.517520
  C     1.640368  0.870417  3.069591
  C     1.782436  4.784928  2.808491
  N     3.735988  1.626215  2.659556
  N     3.949290  5.514925  2.691044
  N     1.663916  0.536575  1.777328
  N     1.869886  4.695023  1.499728
  N     1.030055  1.490768  5.503356
  N     1.026105  5.109728  5.222890
  S     0.361974  0.679612  4.223030
  S     0.433219  4.411689  3.830403
  S     3.113820  1.066743  1.196381
  S     3.354984  5.252791  1.137218
  S     2.693552  1.772264  5.424201
  S     2.736227  5.349726  5.252817
