16  
    
  C    -4.560178 -2.266221  1.492727
  C    -4.392853  1.384861  1.903020
  C    -5.604425 -2.874659  0.740927
  C    -5.582568  0.746524  1.350184
  N    -3.525335 -1.821083  0.768273
  N    -3.475988  1.780451  0.994973
  N    -5.419679 -2.895904 -0.585262
  N    -5.595004  0.728083  0.012266
  N    -6.384559 -2.989504  3.215979
  N    -5.927795  0.862957  3.962761
  S    -7.030181 -3.276207  1.674210
  S    -6.812431  0.464081  2.565092
  S    -3.885438 -2.196953 -0.800214
  S    -4.116617  1.464917 -0.505861
  S    -4.808202 -2.414779  3.241140
  S    -4.434643  1.557311  3.728392
