16  
    
  C     2.361812  0.828305  3.533307
  C     1.913399  5.171821  3.081614
  C     1.055718  0.700508  2.934016
  C     0.920761  4.342998  2.477335
  N     3.372874  0.727049  2.662044
  N     2.960145  5.377103  2.265884
  N     1.068317  0.644409  1.586152
  N     1.101206  4.122430  1.172996
  N     0.622814  1.104512  5.472993
  N     0.108257  4.622950  4.760192
  S    -0.212822  0.483957  4.060055
  S    -0.564077  4.154744  3.379390
  S     2.615245  0.618982  1.194665
  S     2.555359  4.738617  0.797615
  S     2.288502  1.076277  5.226619
  S     1.621827  5.162645  4.740624
