16  
    
  C     2.801469  1.411304  3.637793
  C     2.897530  5.336400  3.545384
  C     1.589992  0.842810  3.080486
  C     1.751578  4.794904  2.855721
  N     3.799504  1.690551  2.780678
  N     3.979659  5.465259  2.772290
  N     1.643621  0.579065  1.795511
  N     1.875958  4.767172  1.539131
  N     1.024450  1.504034  5.509309
  N     1.082465  5.030904  5.268401
  S     0.311694  0.707815  4.237062
  S     0.419869  4.510460  3.822933
  S     3.095002  1.101198  1.253203
  S     3.402898  5.286252  1.223824
  S     2.671898  1.655135  5.366172
  S     2.706176  5.339037  5.259372
