16  
    
  C    -1.356103 -0.422465  2.033478
  C    -1.200178  3.336633  2.180015
  C    -2.592928 -0.966863  1.482761
  C    -2.459536  2.739010  1.669438
  N    -0.488123 -0.162540  1.078908
  N    -0.250583  3.434539  1.269424
  N    -2.533518 -1.436983  0.269150
  N    -2.470042  2.578929  0.340487
  N    -2.846625 -0.707627  4.034906
  N    -2.720481  2.940141  4.264002
  S    -3.779138 -1.193280  2.762731
  S    -3.674146  2.626864  2.906498
  S    -1.008127 -0.916764 -0.323481
  S    -0.966140  3.057455 -0.196014
  S    -1.351589 -0.164428  3.729925
  S    -1.125314  3.309322  3.874440
