16  
    
  C     2.779263  1.396594  3.662462
  C     2.946126  5.235805  3.649418
  C     1.554708  1.042939  3.045310
  C     1.688967  5.127138  2.903037
  N     3.794364  1.513863  2.776407
  N     4.005353  5.329333  2.862395
  N     1.622749  0.909986  1.728207
  N     1.846017  4.769801  1.632864
  N     0.986307  0.821840  5.541391
  N     1.129416  4.751243  5.345109
  S     0.235747  0.729146  4.082156
  S     0.363352  4.893787  3.911548
  S     3.222053  1.210842  1.313651
  S     3.439207  5.104274  1.331799
  S     2.518397  1.427482  5.442450
  S     2.721109  5.291959  5.362813
