16  
    
  C     1.025613  0.255532  3.083426
  C     1.082117  4.100138  2.668858
  C    -0.187390  0.048395  2.355626
  C    -0.108703  3.506894  2.068564
  N     2.116811  0.287224  2.326531
  N     2.099701  4.333824  1.791551
  N    -0.061971 -0.130872  1.073805
  N     0.075749  2.920264  0.882930
  N    -0.768926 -0.065602  4.794021
  N    -0.817161  4.278363  4.420537
  S    -1.546502  0.034928  3.363384
  S    -1.440977  3.335664  3.191011
  S     1.563203  0.033026  0.752210
  S     1.608280  3.446385  0.387817
  S     0.802647  0.287184  4.762232
  S     0.776135  4.732060  4.190741
