16  
    
  C     3.332816  1.564957  3.357003
  C     3.111054  5.037610  3.452308
  C     2.035211  1.447377  2.767801
  C     1.812249  4.795004  2.823087
  N     4.263505  1.402941  2.440035
  N     4.123283  5.130660  2.608170
  N     1.988852  1.272974  1.449001
  N     1.952421  4.365841  1.554449
  N     1.577338  1.689167  5.297295
  N     1.390028  5.013751  5.386813
  S     0.727072  1.628957  3.874034
  S     0.532293  4.579496  4.034752
  S     3.565697  1.232852  0.919903
  S     3.538856  4.711276  1.057961
  S     3.272900  1.925774  5.092950
  S     3.062708  5.299318  5.182909
