16  
    
  C     3.326043  1.469187  3.365054
  C     3.112719  5.060270  3.451645
  C     2.010537  1.360324  2.781800
  C     1.864698  4.521602  2.899007
  N     4.326903  1.453019  2.504572
  N     4.141438  5.066602  2.616368
  N     1.969620  1.200283  1.445483
  N     1.954925  4.376153  1.560838
  N     1.679633  1.789990  5.321371
  N     1.457968  5.001995  5.431761
  S     0.749341  1.649130  3.984190
  S     0.551740  4.669476  4.092095
  S     3.549485  1.330534  1.017144
  S     3.548500  4.738394  1.150876
  S     3.286011  1.761965  5.062247
  S     3.019475  5.346365  5.135125
