16  
    
  C     0.856566  0.229794  2.864666
  C     0.511810  3.710455  2.926582
  C    -0.334398 -0.279537  2.273974
  C    -0.778054  3.451286  2.411317
  N     1.893948  0.365887  2.028628
  N     1.499814  3.903629  2.018331
  N    -0.274861 -0.470445  0.946987
  N    -0.880225  3.747164  1.109229
  N    -0.864485  0.073683  4.832632
  N    -1.086724  3.388531  4.941625
  S    -1.666636 -0.172147  3.406061
  S    -2.095018  3.338186  3.570355
  S     1.313188 -0.050376  0.493966
  S     0.703576  3.865140  0.550406
  S     0.722689  0.403871  4.663888
  S     0.511461  3.453370  4.689183
