16  
    
  C     1.109956  0.278486  3.117970
  C     1.074393  4.167823  2.643693
  C    -0.038482  0.089496  2.304023
  C    -0.118883  3.607017  1.911675
  N     2.268904  0.258119  2.435545
  N     2.173984  4.373826  1.864528
  N     0.199045 -0.110234  1.024608
  N     0.237996  3.100755  0.743509
  N    -0.786360  0.309933  4.710135
  N    -1.003303  4.041792  4.247874
  S    -1.485840  0.236525  3.273011
  S    -1.455514  3.196396  2.951991
  S     1.876698  0.002516  0.826848
  S     1.760114  3.673341  0.336743
  S     0.836944  0.517330  4.811136
  S     0.641420  4.517151  4.256687
