16  
    
  C     0.792063  0.373161  3.064274
  C     0.603090  3.839654  2.999123
  C    -0.488452  0.121122  2.402607
  C    -0.657907  3.374402  2.443916
  N     1.819927  0.554829  2.238159
  N     1.544237  4.056008  2.087873
  N    -0.400035 -0.180005  1.107493
  N    -0.569323  2.919593  1.200047
  N    -1.004649  0.262049  4.907467
  N    -1.115360  3.953284  4.876797
  S    -1.823124  0.218734  3.446962
  S    -1.991351  3.301712  3.556591
  S     1.182451  0.143927  0.763816
  S     0.999102  3.311965  0.667151
  S     0.646603  0.582290  4.754902
  S     0.460859  4.232467  4.634910
