16  
    
  C     2.568065  1.111634  3.222801
  C     2.545257  5.052393  3.584730
  C     1.398782  0.701137  2.475757
  C     1.461425  4.230695  3.099862
  N     3.695662  1.173954  2.514122
  N     3.493133  5.241868  2.689576
  N     1.568907  0.507984  1.179229
  N     1.487353  4.032925  1.795403
  N     0.716100  1.121323  4.945415
  N     0.900630  4.796219  5.539370
  S     0.079624  0.372973  3.583333
  S     0.118107  4.238066  4.201161
  S     3.177199  0.790322  0.900786
  S     2.948721  4.648538  1.234009
  S     2.328944  1.327900  4.934522
  S     2.502311  5.330120  5.273490
