16  
    
  C    -0.462955 -0.475543  2.661225
  C    -0.351446  3.339306  2.629457
  C    -1.714638 -0.740531  1.923868
  C    -1.425677  2.617404  2.075287
  N     0.566365 -0.354409  1.823009
  N     0.737496  3.406725  1.836669
  N    -1.589604 -0.840143  0.583908
  N    -1.391577  2.484790  0.747622
  N    -2.362197 -0.571716  4.452289
  N    -2.180066  3.164840  4.441264
  S    -2.988197 -0.993292  2.982020
  S    -2.791264  2.391633  3.142887
  S    -0.009983 -0.525142  0.298191
  S     0.201400  2.782656  0.363478
  S    -0.763406 -0.050221  4.360505
  S    -0.641512  3.746074  4.303159
