16  
    
  C     2.282198  0.748016  3.511143
  C     1.859438  5.120953  3.133306
  C     1.000631  0.584606  2.886917
  C     0.806477  4.521266  2.345089
  N     3.313686  0.781244  2.671728
  N     2.948790  5.264249  2.442196
  N     1.077334  0.551609  1.558297
  N     1.125911  4.363870  1.062781
  N     0.630072  1.051462  5.545703
  N    -0.004023  4.809967  4.772277
  S    -0.269661  0.566785  4.163336
  S    -0.539486  4.114703  3.408542
  S     2.654644  0.656596  1.167136
  S     2.707567  4.864948  0.865092
  S     2.262398  1.147405  5.225214
  S     1.591135  5.291224  4.853270
