16  
    
  C     0.659506  0.193386  3.146217
  C     0.700129  3.967884  2.963048
  C    -0.653706  0.150950  2.423902
  C    -0.515299  3.410014  2.330468
  N     1.678016  0.212226  2.269666
  N     1.747366  4.026995  2.135273
  N    -0.611300  0.007212  1.092598
  N    -0.424670  3.312355  1.027826
  N    -1.094652  0.198030  4.970160
  N    -1.033571  3.761457  4.816799
  S    -1.962538  0.194135  3.541185
  S    -1.803802  3.170022  3.435660
  S     1.032331  0.080790  0.752655
  S     1.206059  3.429934  0.634366
  S     0.554427  0.524015  4.871398
  S     0.482436  4.311557  4.617483
