16  
    
  C    -1.815193 -0.862348  2.315694
  C    -1.904962  2.416665  2.578000
  C    -3.102845 -1.342341  1.831995
  C    -3.092556  2.064093  1.906593
  N    -0.827986 -0.937364  1.454530
  N    -0.826146  2.725940  1.819971
  N    -3.079167 -1.577936  0.543282
  N    -2.873430  1.847888  0.615607
  N    -3.431256 -1.232219  4.277639
  N    -3.740303  2.092917  4.395936
  S    -4.376375 -1.425413  2.955165
  S    -4.433235  1.654712  2.944979
  S    -1.535590 -1.355445  0.038693
  S    -1.294871  2.242754  0.311521
  S    -1.841429 -0.769236  4.069145
  S    -2.132032  2.485445  4.331007
