16  
    
  C    -5.710533 -2.786394  1.203556
  C    -5.755445  0.964477  1.585934
  C    -7.009865 -3.203045  0.637445
  C    -6.913137  0.435448  0.904913
  N    -4.799633 -2.523159  0.271436
  N    -4.713727  1.022511  0.786811
  N    -6.973113 -3.431344 -0.661611
  N    -6.709628  0.270731 -0.404405
  N    -7.364473 -3.236640  3.112375
  N    -7.534696  0.661848  3.322425
  S    -8.241053 -3.698487  1.742373
  S    -8.284290  0.108550  1.918730
  S    -5.501858 -2.897265 -1.233568
  S    -5.147677  0.620337 -0.714785
  S    -5.833249 -2.567680  2.961859
  S    -5.956135  1.028250  3.290030
