16  
    
  C    -1.475575 -1.207282  2.734889
  C    -1.702447  2.668434  2.381267
  C    -2.641747 -1.571094  1.970736
  C    -2.786105  2.071321  1.670454
  N    -0.417795 -0.794962  1.986709
  N    -0.615361  2.716209  1.635435
  N    -2.381472 -1.749857  0.659328
  N    -2.616329  1.845485  0.364219
  N    -3.468499 -1.421307  4.345799
  N    -3.546756  2.404946  4.183228
  S    -4.088895 -1.877303  2.832519
  S    -4.266019  2.165143  2.688591
  S    -0.839280 -1.156042  0.415351
  S    -1.053461  2.297451  0.104984
  S    -1.822266 -1.250358  4.408123
  S    -1.924112  2.828522  4.119517
