16  
    
  C     2.005098  0.878310  3.024999
  C     2.200288  4.433027  3.031454
  C     0.764513  0.459833  2.425623
  C     1.027023  3.924393  2.269900
  N     3.067693  0.979485  2.198063
  N     3.374590  4.362286  2.401024
  N     0.883415  0.148332  1.136052
  N     1.304712  3.875012  0.963521
  N     0.212948  1.002321  4.903303
  N     0.239492  4.416338  4.672101
  S    -0.613319  0.721937  3.437717
  S    -0.384805  3.878761  3.270663
  S     2.500372  0.525348  0.696823
  S     2.981101  4.020797  0.834062
  S     1.846879  1.327983  4.643062
  S     1.861276  4.781503  4.745314
