16  
    
  C     3.006327  1.479890  3.353462
  C     2.985199  5.165888  3.267476
  C     1.757621  1.262522  2.709551
  C     1.820006  4.665024  2.592041
  N     4.058070  1.602037  2.531222
  N     4.090825  5.209354  2.534236
  N     1.844787  1.247784  1.367241
  N     1.962017  4.603451  1.245764
  N     1.188281  1.296674  5.250512
  N     1.147083  5.009052  5.064112
  S     0.410727  0.995249  3.812415
  S     0.426109  4.583118  3.646929
  S     3.505320  1.405190  1.043228
  S     3.656755  4.751130  1.029051
  S     2.807287  1.582256  5.046138
  S     2.768600  5.279015  4.955728
