16  
    
  C     2.535088  1.131092  3.338846
  C     2.928242  5.259170  3.722710
  C     1.395160  0.632061  2.586183
  C     1.599991  5.197873  3.176463
  N     3.653401  1.391230  2.671671
  N     3.916854  5.091283  2.877746
  N     1.596501  0.619027  1.277377
  N     1.597451  4.794210  1.917507
  N     0.681546  0.761384  5.119189
  N     1.354519  5.447176  5.684210
  S    -0.002778  0.167518  3.709421
  S     0.345429  5.424845  4.364390
  S     3.204281  1.037072  1.005420
  S     3.196064  4.612896  1.470931
  S     2.299240  1.234647  5.023630
  S     3.034588  5.539870  5.396220
