16  
    
  C    -0.267865 -0.600109  2.621484
  C    -0.345504  3.294216  2.644470
  C    -1.449910 -1.118347  2.125880
  C    -1.581562  2.705651  2.058971
  N     0.788258 -0.737732  1.785200
  N     0.715038  3.350190  1.863108
  N    -1.418656 -1.352131  0.780037
  N    -1.410192  2.424551  0.772432
  N    -1.865555 -0.644374  4.597285
  N    -2.059012  2.872720  4.634452
  S    -2.716757 -1.240019  3.328214
  S    -2.860473  2.470232  3.184272
  S     0.140592 -1.253131  0.375754
  S     0.102128  2.958310  0.331984
  S    -0.295867 -0.313440  4.317072
  S    -0.518093  3.489968  4.350000
