16  
    
  C     3.310391  1.513375  3.338468
  C     3.092824  5.013123  3.441602
  C     1.991075  1.412855  2.780955
  C     1.829198  4.727955  2.837409
  N     4.284081  1.407690  2.395945
  N     4.139058  5.104066  2.619188
  N     1.982407  1.240470  1.462357
  N     1.945577  4.323580  1.570882
  N     1.620389  1.735366  5.314320
  N     1.410154  5.004435  5.412830
  S     0.757541  1.641024  3.908801
  S     0.527301  4.613618  4.081272
  S     3.573108  1.278751  0.974297
  S     3.560243  4.734115  1.075739
  S     3.267594  1.867158  5.095369
  S     3.051214  5.325067  5.164124
