16  
    
  C    -5.769946 -3.083772  1.548291
  C    -6.135970  0.955221  1.465271
  C    -7.006859 -3.342570  0.764415
  C    -7.273176  0.275625  0.899461
  N    -4.647757 -2.970132  0.862501
  N    -5.300182  1.301082  0.495605
  N    -6.744867 -3.605690 -0.528616
  N    -7.260843  0.121071 -0.430337
  N    -7.582829 -3.467579  3.317948
  N    -7.557186  0.199054  3.447344
  S    -8.375871 -3.721313  1.855440
  S    -8.332293 -0.408094  2.092291
  S    -5.079127 -3.320481 -0.763847
  S    -5.847157  0.829090 -0.977005
  S    -6.039655 -2.805141  3.233450
  S    -6.046390  0.963671  3.157990
