16  
    
  C     2.363168  0.832528  3.529969
  C     1.924384  5.143357  3.059889
  C     1.066389  0.702451  2.921938
  C     0.908097  4.350010  2.471883
  N     3.360070  0.747522  2.646248
  N     2.951389  5.358844  2.261079
  N     1.074511  0.635139  1.590898
  N     1.102579  4.086560  1.187337
  N     0.617213  1.085570  5.477830
  N     0.112132  4.583837  4.768649
  S    -0.200998  0.494257  4.046228
  S    -0.553264  4.163894  3.383074
  S     2.609206  0.614956  1.192710
  S     2.548818  4.737127  0.779024
  S     2.286256  1.070884  5.236634
  S     1.626588  5.153418  4.740247
