16  
    
  C    -4.173240 -2.225950  2.049991
  C    -4.188576  1.434600  1.884925
  C    -5.495498 -2.485054  1.491781
  C    -5.423153  1.189113  1.199199
  N    -3.252532 -2.088129  1.109505
  N    -3.118022  1.442423  1.112409
  N    -5.584413 -2.479949  0.164409
  N    -5.313156  1.069389 -0.099149
  N    -5.804730 -2.150930  4.052807
  N    -5.994081  1.495796  3.608208
  S    -6.746235 -2.364298  2.747961
  S    -6.860328  1.200652  2.187976
  S    -3.998761 -2.190212 -0.346580
  S    -3.661394  1.188170 -0.382549
  S    -4.206150 -1.931542  3.722123
  S    -4.367405  1.505495  3.576045
