16  
    
  C    -4.784757 -2.543554  1.888380
  C    -5.230378  1.256197  1.794453
  C    -5.991244 -3.037356  1.256168
  C    -6.327103  0.553208  1.150612
  N    -3.809928 -2.196032  1.041842
  N    -4.145350  1.346515  1.007488
  N    -5.885033 -3.178593 -0.079382
  N    -6.204286  0.209750 -0.157674
  N    -6.639648 -2.887408  3.805071
  N    -6.995405  0.999800  3.661184
  S    -7.349839 -3.243083  2.319509
  S    -7.665871  0.383673  2.198372
  S    -4.335109 -2.639403 -0.490750
  S    -4.629379  0.694500 -0.478236
  S    -5.110285 -2.264376  3.593305
  S    -5.356278  1.364601  3.535326
