16  
    
  C    -4.731196 -2.413672  1.456014
  C    -4.567644  0.997929  1.581355
  C    -5.982755 -2.767497  0.856078
  C    -5.845658  0.884675  0.900695
  N    -3.705708 -2.311329  0.620425
  N    -3.502820  1.206792  0.796296
  N    -5.938725 -2.955816 -0.439105
  N    -5.697066  0.838743 -0.424339
  N    -6.445383 -2.692967  3.402714
  N    -6.304653  0.725181  3.387099
  S    -7.308369 -3.040844  2.047080
  S    -7.172666  0.572157  2.002009
  S    -4.343930 -2.626837 -0.919588
  S    -4.142631  1.046704 -0.718821
  S    -4.818171 -2.529119  3.231565
  S    -4.707394  0.945024  3.327550
