16  
    
  C    -5.450776 -2.090586  1.558942
  C    -5.275503  1.055992  1.399242
  C    -6.601748 -2.686334  0.912107
  C    -6.466686  0.563031  0.810610
  N    -4.404162 -1.934973  0.744315
  N    -4.241945  1.241819  0.569327
  N    -6.523109 -2.900091 -0.390039
  N    -6.411723  0.398429 -0.510390
  N    -7.126549 -2.555919  3.488896
  N    -7.114689  0.922405  3.309774
  S    -7.896039 -2.872030  2.068738
  S    -7.888531  0.476440  1.874523
  S    -4.915605 -2.463330 -0.772622
  S    -4.908095  0.916801 -0.959317
  S    -5.509570 -2.110095  3.254703
  S    -5.497018  1.371096  3.061315
