16  
    
  C    -4.740632 -2.340059  1.472997
  C    -4.585152  0.967392  1.654667
  C    -5.989413 -2.778857  0.881653
  C    -5.801854  0.729267  0.951842
  N    -3.720949 -2.203142  0.646756
  N    -3.553804  1.135063  0.872709
  N    -5.879559 -2.851918 -0.445794
  N    -5.711123  0.780626 -0.394899
  N    -6.451371 -2.703303  3.419245
  N    -6.331979  0.687453  3.584655
  S    -7.273260 -3.059533  1.986631
  S    -7.073171  0.545353  2.103807
  S    -4.340605 -2.537316 -0.857536
  S    -4.047530  1.207950 -0.729083
  S    -4.826362 -2.492647  3.168359
  S    -4.674691  1.001434  3.411190
