16  
    
  C    -3.884859 -2.378744  1.605064
  C    -3.435826  1.745504  1.585658
  C    -5.195686 -2.357761  0.989462
  C    -4.546592  1.101589  1.030306
  N    -2.860568 -2.214371  0.795961
  N    -2.460236  1.975625  0.687194
  N    -5.091341 -2.190762 -0.338081
  N    -4.521848  1.007471 -0.301918
  N    -5.583101 -2.425028  3.464987
  N    -5.101622  1.551675  3.455099
  S    -6.391215 -2.754752  2.078381
  S    -5.924799  0.954888  2.151148
  S    -3.498147 -2.032127 -0.666602
  S    -3.029505  1.601682 -0.767221
  S    -3.921748 -2.592879  3.335785
  S    -3.592945  2.177446  3.264934
