16  
    
  C    -0.883245 -0.688036  2.460669
  C    -0.496628  3.211414  2.919729
  C    -2.151682 -0.802146  1.720095
  C    -1.687890  2.816990  2.277059
  N     0.170664 -0.615270  1.657249
  N     0.582318  3.306519  2.130842
  N    -1.994064 -1.005661  0.405621
  N    -1.581388  2.701099  0.951059
  N    -2.635249 -0.641712  4.265343
  N    -2.340064  3.383618  4.700570
  S    -3.362103 -1.132906  2.855194
  S    -3.080512  2.716222  3.368548
  S    -0.355643 -0.782009  0.121195
  S     0.023279  2.919201  0.601911
  S    -0.995531 -0.434985  4.171345
  S    -0.733318  3.759814  4.561869
