16  
    
  C    -0.713579 -0.836077  2.481728
  C    -0.908601  3.150340  2.477105
  C    -1.919487 -1.338830  1.761738
  C    -2.138982  2.806188  1.829257
  N     0.293403 -0.691973  1.653050
  N     0.144410  3.028417  1.665597
  N    -1.782957 -1.307265  0.451702
  N    -2.115473  2.649032  0.496661
  N    -2.710846 -1.024489  4.223066
  N    -2.665345  3.082576  4.300944
  S    -3.326925 -1.618301  2.793184
  S    -3.482114  2.699740  2.943003
  S    -0.256098 -0.912321  0.115294
  S    -0.499591  2.800235  0.119230
  S    -1.089272 -0.555176  4.131536
  S    -1.072107  3.394644  4.200227
