16  
    
  C    -1.403857 -0.403237  1.959117
  C    -1.264694  3.341453  2.125240
  C    -2.579441 -1.074272  1.561252
  C    -2.455077  2.721253  1.657419
  N    -0.461889 -0.201788  1.038958
  N    -0.307393  3.563548  1.227950
  N    -2.564766 -1.482059  0.284103
  N    -2.435162  2.596819  0.346376
  N    -2.861428 -0.708669  4.021044
  N    -2.695542  2.929437  4.219798
  S    -3.806573 -1.177791  2.765067
  S    -3.644594  2.592576  2.909047
  S    -1.065785 -0.920545 -0.347291
  S    -0.946846  3.059871 -0.206527
  S    -1.322092 -0.161502  3.646097
  S    -1.115336  3.317299  3.891995
