16  
    
  C    -2.775107 -1.506839  2.001628
  C    -3.156937  1.942902  1.854044
  C    -4.032575 -1.868323  1.430696
  C    -4.327877  1.437717  1.125385
  N    -1.791125 -1.342053  1.119293
  N    -2.083196  2.099889  1.117216
  N    -3.947486 -2.155723  0.151388
  N    -4.073771  1.250843 -0.145046
  N    -4.555376 -1.690337  3.919324
  N    -5.111880  1.712205  3.432665
  S    -5.378463 -1.930632  2.504865
  S    -5.730463  1.136826  2.012933
  S    -2.416099 -1.701137 -0.385310
  S    -2.480480  1.636184 -0.394204
  S    -2.964938 -1.271874  3.733148
  S    -3.504010  2.096635  3.579427
