16  
    
  C    -0.093446 -0.618842  2.561015
  C    -0.023574  3.306164  2.630187
  C    -1.243821 -1.032887  1.862397
  C    -1.165096  2.613570  1.930082
  N     0.839024 -0.133141  1.743258
  N     0.932029  3.738090  1.775222
  N    -1.103482 -1.191636  0.538317
  N    -0.899379  2.284258  0.676472
  N    -1.852613 -0.984777  4.346396
  N    -1.923352  2.854049  4.341376
  S    -2.582343 -1.339374  2.889598
  S    -2.531399  2.311569  2.916753
  S     0.369521 -0.543109  0.198162
  S     0.466104  3.153473  0.247012
  S    -0.210024 -0.497999  4.315534
  S    -0.366078  3.509353  4.324493
