16  
    
  C    -1.511675 -1.135650  2.633771
  C    -1.576307  2.707820  2.394266
  C    -2.592176 -1.595993  1.825631
  C    -2.715772  2.209282  1.686853
  N    -0.387436 -0.951383  2.006749
  N    -0.480873  2.779941  1.632034
  N    -2.310530 -1.610665  0.554173
  N    -2.508376  1.957807  0.390250
  N    -3.421921 -1.598857  4.289622
  N    -3.525687  2.493982  4.103143
  S    -4.007005 -1.948242  2.798513
  S    -4.158325  1.971519  2.645530
  S    -0.685085 -1.191826  0.408696
  S    -0.919092  2.200925  0.129042
  S    -1.849512 -1.129943  4.405821
  S    -1.913898  2.922909  4.056847
