16  
    
  C    -1.860050 -0.959234  2.110931
  C    -1.786973  2.271241  1.983094
  C    -3.146685 -1.256760  1.535661
  C    -3.035712  2.021933  1.270871
  N    -0.841955 -0.935854  1.278861
  N    -0.698223  2.472703  1.207395
  N    -3.105045 -1.524680  0.256981
  N    -2.794690  1.828033 -0.041190
  N    -3.498366 -1.007575  4.045377
  N    -3.651033  1.964988  3.796494
  S    -4.447140 -1.193296  2.679058
  S    -4.391664  1.923107  2.301466
  S    -1.534308 -1.314103 -0.210402
  S    -1.164194  2.097621 -0.315526
  S    -1.839378 -0.952837  3.884896
  S    -2.023312  2.399076  3.728637
