16  
    
  C    -1.383370 -0.459649  1.910930
  C    -1.160722  3.306640  2.175752
  C    -2.554872 -1.188917  1.530364
  C    -2.460756  2.816424  1.599006
  N    -0.481531 -0.303574  0.928209
  N    -0.382288  3.748333  1.210677
  N    -2.561028 -1.506094  0.248140
  N    -2.439089  2.535564  0.293121
  N    -2.827167 -0.656625  4.053403
  N    -2.689163  2.922862  4.186530
  S    -3.830454 -1.193391  2.774398
  S    -3.630720  2.499539  2.886611
  S    -1.199235 -0.942926 -0.396864
  S    -0.933771  3.090155 -0.236502
  S    -1.293495 -0.144372  3.576477
  S    -1.112947  3.364086  3.890727
