16  
    
  C     1.770173  0.574463  3.205601
  C     2.069872  4.507769  3.338227
  C     0.637929  0.150737  2.423351
  C     0.817153  4.123784  2.692334
  N     2.848332  0.908805  2.521511
  N     2.965989  4.992086  2.458708
  N     0.838375  0.195356  1.100941
  N     0.896848  3.932070  1.357070
  N    -0.218888  0.106854  4.967902
  N     0.371094  4.028126  5.177051
  S    -0.724688 -0.325951  3.433533
  S    -0.482473  3.671646  3.812835
  S     2.393893  0.684590  0.914033
  S     2.396396  4.531829  0.910038
  S     1.437916  0.643804  4.952526
  S     1.896889  4.595566  5.039885
