16  
    
  C     1.585825  0.813015  3.277227
  C     2.031357  4.625432  3.280822
  C     0.550051  0.172503  2.511727
  C     0.849331  3.992863  2.693965
  N     2.643465  1.211704  2.528968
  N     3.056872  4.615941  2.409552
  N     0.867531  0.036866  1.214851
  N     0.901115  3.961990  1.331951
  N    -0.234328  0.394464  4.995341
  N     0.268992  4.276179  5.216666
  S    -0.848382 -0.113756  3.489918
  S    -0.491522  3.723808  3.852323
  S     2.390999  0.716014  0.970998
  S     2.469062  4.329708  0.909655
  S     1.273803  0.975415  4.959861
  S     1.848306  4.936171  4.934582
