16  
    
  C     2.098662  1.000166  3.219896
  C     2.157579  4.486946  2.960518
  C     0.834734  0.667701  2.593054
  C     0.986958  3.909076  2.350247
  N     3.118680  1.055025  2.391174
  N     3.212878  4.557395  2.168691
  N     0.916978  0.606602  1.255717
  N     1.096235  3.798627  1.049889
  N     0.344634  0.885800  5.102687
  N     0.370507  4.261992  4.794973
  S    -0.422430  0.456522  3.739459
  S    -0.392247  3.873997  3.384259
  S     2.508137  0.844021  0.897207
  S     2.686032  4.189957  0.653167
  S     1.954435  1.388957  4.901336
  S     1.987017  4.576268  4.621744
