16  
    
  C    -3.856269 -2.467783  1.628705
  C    -3.379029  1.722146  1.555963
  C    -5.129015 -2.301744  0.959014
  C    -4.590921  1.034343  1.051856
  N    -2.802690 -2.246387  0.801244
  N    -2.393268  1.953094  0.708650
  N    -5.078995 -2.151285 -0.363737
  N    -4.477301  0.974882 -0.266816
  N    -5.562515 -2.512738  3.489595
  N    -5.096330  1.509739  3.468119
  S    -6.426078 -2.757672  2.074281
  S    -5.911494  0.952843  2.113008
  S    -3.491472 -2.044338 -0.705249
  S    -3.027679  1.541909 -0.744518
  S    -3.921686 -2.593962  3.343751
  S    -3.564841  2.185380  3.226950
