16  
    
  C    -4.690335 -2.535466  1.645856
  C    -4.868632  1.257179  1.509371
  C    -5.944134 -3.120615  1.144637
  C    -5.992438  0.665738  0.815139
  N    -3.755991 -2.295321  0.751306
  N    -3.806550  1.426876  0.747552
  N    -5.966087 -3.168138 -0.181985
  N    -5.781884  0.360155 -0.473109
  N    -6.312193 -2.782637  3.690787
  N    -6.592963  0.760191  3.372652
  S    -7.232362 -3.003312  2.304916
  S    -7.237918  0.264808  1.921901
  S    -4.445022 -2.669291 -0.717031
  S    -4.245475  0.856506 -0.734893
  S    -4.773295 -2.161195  3.339848
  S    -4.979617  1.291670  3.258460
