16  
    
  C     3.761435  2.072343  3.662476
  C     3.484231  5.344968  3.579243
  C     2.590595  1.522622  2.987334
  C     2.245146  4.948437  2.939366
  N     4.819499  2.327968  2.922705
  N     4.566839  5.477513  2.810328
  N     2.881361  1.327870  1.713461
  N     2.384788  4.891630  1.627077
  N     1.793065  1.952480  5.329444
  N     1.805929  4.951796  5.417396
  S     1.118565  1.523830  3.914790
  S     0.932833  4.739544  4.009723
  S     4.359252  1.849963  1.313069
  S     3.926793  5.335578  1.260023
  S     3.406570  2.237442  5.369625
  S     3.448431  5.414430  5.293424
