16  
    
  C    -3.409368 -2.263714  1.927256
  C    -3.822200  2.014770  1.902402
  C    -4.524681 -2.870571  1.236348
  C    -4.666339  1.012358  1.293000
  N    -2.418956 -1.983476  1.079825
  N    -2.767411  2.350996  1.190915
  N    -4.275288 -3.342571  0.035517
  N    -4.434380  0.755178  0.011390
  N    -5.310401 -2.482104  3.708495
  N    -5.423742  1.326862  3.645888
  S    -5.956464 -3.059120  2.272967
  S    -5.968675  0.496740  2.328092
  S    -2.745038 -2.774940 -0.337272
  S    -3.059757  1.630268 -0.316828
  S    -3.770179 -1.953151  3.570745
  S    -4.176817  2.451521  3.563736
