16  
    
  C    -2.989710 -1.847078  2.190327
  C    -3.329177  1.721847  2.004774
  C    -4.305547 -1.782752  1.572913
  C    -4.599541  1.273902  1.498012
  N    -1.904105 -1.837778  1.413347
  N    -2.351049  1.868042  1.105398
  N    -4.233714 -1.973335  0.255780
  N    -4.672722  1.282994  0.175415
  N    -4.719063 -1.955811  4.141009
  N    -4.932368  1.436984  4.034084
  S    -5.580551 -2.001496  2.701329
  S    -5.830426  1.097859  2.718737
  S    -2.620141 -1.943275 -0.130065
  S    -3.138081  1.647730 -0.390799
  S    -3.109860 -1.660060  3.925303
  S    -3.354801  1.836542  3.797871
