16  
    
  C    -4.168479 -2.037615  1.811581
  C    -4.211783  1.540114  1.853206
  C    -5.446309 -2.407018  1.129834
  C    -5.390487  0.934450  1.336625
  N    -3.160956 -2.086608  0.915091
  N    -3.220485  1.672586  0.995162
  N    -5.378075 -2.782268 -0.126431
  N    -5.295111  0.529747  0.094383
  N    -6.011425 -1.996070  3.630666
  N    -5.999067  1.688945  3.764482
  S    -6.836189 -2.482905  2.210080
  S    -6.728418  0.931227  2.439257
  S    -3.778906 -2.562368 -0.559971
  S    -3.737250  1.047541 -0.395450
  S    -4.373164 -1.522539  3.454066
  S    -4.335066  2.158908  3.548885
