16  
    
  C     0.057935 -0.615542  2.464282
  C    -0.229992  3.144131  2.661378
  C    -1.216724 -1.002061  1.897934
  C    -1.415150  2.502166  2.040684
  N     1.065830 -0.577762  1.615034
  N     0.721901  3.285862  1.737916
  N    -1.202691 -1.170142  0.595849
  N    -1.462748  2.591073  0.712559
  N    -1.690683 -0.782592  4.382017
  N    -1.921271  2.865237  4.599189
  S    -2.527370 -1.243001  3.050612
  S    -2.699576  2.317958  3.188568
  S     0.412630 -0.915496  0.081498
  S     0.097277  2.929194  0.242502
  S    -0.058603 -0.350426  4.182013
  S    -0.325523  3.464316  4.372140
