16  
    
  C    -1.412614 -0.979722  2.460799
  C    -1.513525  2.739212  2.200997
  C    -2.518588 -1.570770  1.656325
  C    -2.491109  1.927861  1.522799
  N    -0.321015 -0.671810  1.796113
  N    -0.493687  3.017788  1.406011
  N    -2.213847 -1.653047  0.396438
  N    -2.266209  1.629391  0.241540
  N    -3.400562 -1.396819  4.073713
  N    -3.404583  2.474690  3.907418
  S    -3.994070 -1.874236  2.609939
  S    -3.928508  1.692664  2.502525
  S    -0.633302 -1.045588  0.185289
  S    -0.820478  2.367018 -0.066910
  S    -1.831745 -1.040433  4.148767
  S    -1.824728  3.016297  3.910549
