16  
    
  C    -0.621066 -0.373347  2.623930
  C    -0.430103  3.437693  2.640971
  C    -1.848731 -0.735185  2.042219
  C    -1.405205  2.498615  2.094069
  N     0.385808 -0.222541  1.778043
  N     0.729861  3.545819  1.947002
  N    -1.741568 -0.995605  0.735388
  N    -1.093307  2.120095  0.855843
  N    -2.264577 -0.821664  4.594336
  N    -2.218572  3.081922  4.459828
  S    -3.141601 -1.011906  3.221586
  S    -2.814485  2.291467  3.119616
  S    -0.191067 -0.762801  0.349244
  S     0.360067  2.808784  0.479233
  S    -0.702598 -0.241091  4.350006
  S    -0.711672  3.741113  4.324985
