16  
    
  C     2.983616  1.549578  3.445964
  C     2.993761  5.139652  3.235350
  C     1.741701  1.282559  2.736220
  C     1.779115  4.660227  2.576606
  N     3.986436  1.613962  2.573914
  N     4.015501  5.138876  2.411989
  N     1.782567  1.198246  1.419461
  N     1.877159  4.378108  1.290926
  N     1.229654  0.935949  5.239841
  N     1.135873  4.968473  5.084424
  S     0.398292  0.843652  3.759001
  S     0.438630  4.438886  3.651012
  S     3.409253  1.395237  1.063568
  S     3.477956  4.792391  0.893690
  S     2.808383  1.604994  5.192336
  S     2.766597  5.382450  4.972160
