16  
    
  C    -1.660734 -1.131110  2.082771
  C    -1.743593  2.430431  1.939972
  C    -2.965491 -1.241522  1.541625
  C    -2.999502  1.976761  1.280511
  N    -0.658568 -0.994787  1.149915
  N    -0.659975  2.475844  1.150595
  N    -2.951252 -1.563038  0.211533
  N    -2.797410  1.823145 -0.013282
  N    -3.409208 -1.024729  4.085942
  N    -3.582348  2.075119  3.759249
  S    -4.249504 -1.180252  2.652779
  S    -4.358835  1.943551  2.304910
  S    -1.381946 -1.396394 -0.261555
  S    -1.231837  2.160479 -0.373077
  S    -1.762382 -0.949814  3.839630
  S    -1.923899  2.361780  3.688459
