16  
    
  C     2.977721  1.592511  3.474051
  C     2.947133  5.220411  3.193860
  C     1.823993  0.953484  2.950728
  C     1.804402  4.509213  2.698249
  N     3.872899  1.799700  2.486247
  N     3.815470  5.548333  2.257665
  N     1.798304  0.667041  1.669995
  N     1.782093  4.286099  1.397252
  N     1.142395  1.443410  5.358265
  N     1.323513  4.714006  5.282512
  S     0.484724  0.641191  4.002793
  S     0.527778  4.162570  3.875826
  S     3.282377  1.194273  1.119075
  S     3.278148  4.838412  0.827740
  S     2.727524  1.860705  5.165901
  S     2.741549  5.486541  4.946780
