16  
    
  C    -3.137938 -1.830632  1.842342
  C    -3.587200  1.653257  2.071796
  C    -4.370560 -2.334454  1.287685
  C    -4.671015  1.094968  1.388595
  N    -2.116173 -1.691207  1.029552
  N    -2.493702  1.800732  1.335694
  N    -4.241222 -2.677391 -0.002671
  N    -4.421927  0.789954  0.115748
  N    -4.818213 -2.039673  3.774403
  N    -5.508084  1.449975  3.840144
  S    -5.552729 -2.704987  2.462179
  S    -6.119169  0.978247  2.389686
  S    -2.698563 -2.262769 -0.450849
  S    -2.816528  1.243424 -0.176231
  S    -3.274184 -1.444701  3.530075
  S    -3.962810  1.929757  3.732391
