16  
    
  C    -3.927427 -1.863802  1.705739
  C    -3.704350  1.731505  1.812074
  C    -5.150741 -2.476611  1.107027
  C    -4.944661  1.494599  1.169461
  N    -2.860262 -1.675062  0.925593
  N    -2.726701  2.024076  0.962298
  N    -4.965922 -2.527467 -0.209577
  N    -4.877608  1.346929 -0.149474
  N    -5.858995 -1.891050  3.456365
  N    -5.474685  1.606326  3.746552
  S    -6.545050 -2.637113  2.141648
  S    -6.218957  1.111054  2.343496
  S    -3.443001 -2.100036 -0.592101
  S    -3.341709  1.747995 -0.567117
  S    -4.197277 -1.540882  3.417572
  S    -3.812742  1.795516  3.599119
