16  
    
  C    -1.485575 -1.163953  2.642030
  C    -1.586529  2.734805  2.371991
  C    -2.616114 -1.540654  1.834464
  C    -2.733482  2.150174  1.671279
  N    -0.339998 -0.953149  1.997791
  N    -0.450629  2.768845  1.626288
  N    -2.303608 -1.620646  0.551163
  N    -2.497572  1.986218  0.360448
  N    -3.414168 -1.641004  4.303900
  N    -3.520033  2.496270  4.101856
  S    -4.010261 -1.961306  2.785255
  S    -4.119371  1.948448  2.635281
  S    -0.665096 -1.191538  0.383698
  S    -0.905392  2.199665  0.145260
  S    -1.866050 -1.099631  4.391512
  S    -1.911587  2.941611  4.058298
