16  
    
  C     1.126234 -0.022637  2.903414
  C     0.854759  3.832375  2.891226
  C    -0.179981 -0.367746  2.476731
  C    -0.395912  3.327340  2.380638
  N     2.010174  0.198773  1.942892
  N     1.802948  3.817720  1.996413
  N    -0.293547 -0.521807  1.156536
  N    -0.381890  3.163083  1.058991
  N    -0.457972 -0.115680  5.015462
  N    -0.713791  3.851018  4.939512
  S    -1.401891 -0.518302  3.753469
  S    -1.566819  3.364395  3.635130
  S     1.210984 -0.145836  0.536370
  S     1.216521  3.369055  0.587174
  S     1.088957  0.267824  4.664064
  S     0.918380  4.261782  4.633887
