16  
    
  C     1.178742  0.188059  2.981081
  C     0.672609  3.870453  3.169309
  C    -0.071864 -0.411804  2.429918
  C    -0.484753  3.317242  2.502709
  N     2.116530  0.318646  2.060741
  N     1.779762  4.059808  2.464549
  N     0.051647 -0.813001  1.175603
  N    -0.360223  3.336739  1.215381
  N    -0.504295  0.205342  4.902806
  N    -1.032537  3.222949  5.007090
  S    -1.321101 -0.496769  3.624636
  S    -1.882103  2.962417  3.512237
  S     1.564537 -0.335016  0.604770
  S     1.243715  3.784540  0.870820
  S     1.084112  0.609204  4.701114
  S     0.532771  3.619310  4.856427
