16  
    
  C    -5.805307 -3.102330  1.545218
  C    -6.143413  0.952206  1.441815
  C    -7.014688 -3.336125  0.750115
  C    -7.270275  0.213679  0.876710
  N    -4.646030 -2.981758  0.894967
  N    -5.292246  1.301514  0.531672
  N    -6.737140 -3.604895 -0.528248
  N    -7.307399  0.122580 -0.437806
  N    -7.624583 -3.408913  3.293137
  N    -7.564243  0.224010  3.392180
  S    -8.383008 -3.682192  1.854797
  S    -8.333123 -0.398707  2.064557
  S    -5.064641 -3.315787 -0.706847
  S    -5.872274  0.842580 -0.973024
  S    -6.031956 -2.836994  3.213714
  S    -6.046847  0.955553  3.159782
