16  
    
  C    -4.786839 -2.292041  1.713358
  C    -4.819332  1.039463  1.679737
  C    -5.976141 -2.878289  1.143720
  C    -5.930868  0.382818  1.060824
  N    -3.818469 -2.156591  0.839043
  N    -3.800738  1.368046  0.907506
  N    -5.992126 -3.015899 -0.183121
  N    -5.826268  0.238854 -0.253458
  N    -6.402235 -2.666421  3.751738
  N    -6.785088  0.944211  3.514716
  S    -7.179080 -3.189936  2.357798
  S    -7.321695  0.103020  2.124060
  S    -4.409893 -2.600672 -0.662479
  S    -4.330087  0.862887 -0.628542
  S    -4.828077 -2.178673  3.495767
  S    -5.206124  1.463464  3.352445
