16  
    
  C     2.264190  0.945434  3.423445
  C     2.052305  4.679362  2.985945
  C     0.990132  0.608848  2.835437
  C     0.848024  4.201920  2.349546
  N     3.257660  1.076141  2.564954
  N     3.033630  5.000936  2.197258
  N     1.065044  0.351620  1.548275
  N     0.925649  4.097942  1.044155
  N     0.540146  0.841662  5.394195
  N     0.335344  4.359224  4.836603
  S    -0.315756  0.674151  3.989739
  S    -0.495006  3.980172  3.460754
  S     2.670318  0.708502  1.090797
  S     2.523571  4.537932  0.668365
  S     2.250617  1.004306  5.104538
  S     1.845829  4.947884  4.637648
