16  
    
  C     0.062569 -0.622623  2.455499
  C    -0.227524  3.150722  2.667132
  C    -1.212294 -0.982627  1.891361
  C    -1.414967  2.502929  2.041763
  N     1.071904 -0.575046  1.609680
  N     0.718817  3.283798  1.735397
  N    -1.205619 -1.165484  0.597217
  N    -1.458159  2.591041  0.713077
  N    -1.692368 -0.786189  4.383135
  N    -1.918294  2.866157  4.597653
  S    -2.526784 -1.245813  3.050994
  S    -2.695590  2.314483  3.184590
  S     0.411768 -0.913313  0.081285
  S     0.100188  2.928078  0.243232
  S    -0.062476 -0.351802  4.178723
  S    -0.329850  3.466431  4.373320
