16  
    
  C     0.673917  0.266243  3.034105
  C     0.759863  3.747180  2.830969
  C    -0.636980 -0.002060  2.391633
  C    -0.522444  3.349140  2.277292
  N     1.674683  0.406825  2.156126
  N     1.696920  4.026843  1.911108
  N    -0.575945 -0.289369  1.098874
  N    -0.511627  3.325863  0.978917
  N    -1.030164  0.282204  4.901086
  N    -1.016394  3.572101  4.750102
  S    -1.906398 -0.041228  3.517630
  S    -1.874053  3.233802  3.423565
  S     1.031507  0.001184  0.698900
  S     1.006567  3.681573  0.448915
  S     0.632662  0.482891  4.758720
  S     0.647548  3.885994  4.566400
