16  
    
  C    -0.892981 -0.688380  2.404304
  C    -0.798980  3.017059  2.460376
  C    -1.947143 -1.339347  1.688707
  C    -2.059395  2.754924  1.836894
  N     0.203157 -0.601917  1.639102
  N     0.170737  3.258254  1.592887
  N    -1.744372 -1.561321  0.368283
  N    -2.033838  2.531604  0.507911
  N    -2.740014 -0.837332  4.110277
  N    -2.505204  2.859610  4.392668
  S    -3.301599 -1.609246  2.758063
  S    -3.408404  2.630075  3.013409
  S    -0.173443 -1.122457  0.115932
  S    -0.434435  2.858348  0.080242
  S    -1.065651 -0.588004  4.115357
  S    -0.916102  3.342787  4.138934
