16  
    
  C    -3.107264 -1.649732  1.841769
  C    -3.541496  1.564357  2.112369
  C    -4.244601 -2.397704  1.334052
  C    -4.733219  1.171242  1.347835
  N    -2.108110 -1.575530  0.971374
  N    -2.400210  1.660481  1.403441
  N    -4.230006 -2.633360  0.019802
  N    -4.455089  0.763354  0.094367
  N    -4.693992 -2.043351  3.844250
  N    -5.424761  1.403826  3.889413
  S    -5.560206 -2.573836  2.501852
  S    -6.140554  1.069894  2.374892
  S    -2.702289 -2.196282 -0.430427
  S    -2.847110  1.158853 -0.164296
  S    -3.176191 -1.482476  3.530216
  S    -3.784789  1.916433  3.823512
