16  
    
  C     1.496529  1.062786  3.199353
  C     1.644481  4.588169  3.393377
  C     0.271399  0.548909  2.586026
  C     0.390989  4.124184  2.786442
  N     2.530228  1.238847  2.401805
  N     2.697950  4.471826  2.568864
  N     0.391030  0.304543  1.278276
  N     0.438432  3.844585  1.481042
  N    -0.301737  0.922754  5.005180
  N     0.004319  4.596612  5.371944
  S    -1.043803  0.369160  3.730014
  S    -0.832261  4.288915  3.964845
  S     1.934623  0.774162  0.915382
  S     2.044273  4.002867  1.101969
  S     1.322597  1.237865  4.880659
  S     1.641576  4.861001  5.097923
