16  
    
  C     2.225891  0.938829  3.412803
  C     2.078846  4.606001  2.989541
  C     0.968976  0.593090  2.827078
  C     0.832974  4.301892  2.328216
  N     3.231915  1.104998  2.588535
  N     3.108634  4.933400  2.181770
  N     1.022661  0.337709  1.515776
  N     0.922490  4.072182  1.015494
  N     0.570078  0.877583  5.317321
  N     0.324363  4.387429  4.897862
  S    -0.315657  0.664373  3.960215
  S    -0.465353  3.920011  3.446946
  S     2.656837  0.726986  1.082241
  S     2.496365  4.505183  0.673830
  S     2.220605  1.011102  5.095637
  S     1.879862  4.903492  4.609878
