16  
    
  C     3.256003  1.570996  3.580046
  C     3.095612  5.048800  3.394731
  C     2.000361  1.124074  3.040484
  C     1.949734  4.473333  2.671811
  N     4.315168  1.603901  2.781925
  N     4.123954  5.464880  2.660020
  N     2.118253  0.854104  1.760106
  N     2.235687  4.310603  1.399011
  N     1.550239  1.473874  5.562327
  N     1.164538  5.075304  5.124525
  S     0.696420  0.961439  4.214826
  S     0.624250  4.139800  3.856215
  S     3.688128  1.091428  1.241049
  S     3.705009  5.003727  1.068977
  S     3.123353  2.027260  5.251033
  S     2.784029  5.353857  5.084698
