16  
    
  C     1.781306  0.446985  3.169471
  C     1.898385  4.561343  3.370069
  C     0.593549  0.140915  2.447762
  C     0.809723  3.933832  2.685193
  N     2.868245  0.713946  2.429834
  N     2.910013  4.798273  2.554975
  N     0.709806  0.250324  1.138896
  N     0.854561  3.946349  1.333464
  N    -0.037492  0.005988  4.884212
  N     0.332555  4.014166  5.289684
  S    -0.785492 -0.264054  3.465411
  S    -0.491595  3.714829  3.789086
  S     2.339022  0.700135  0.853059
  S     2.402912  4.632556  0.969693
  S     1.544537  0.618222  4.853894
  S     1.910446  4.426337  5.050552
