16  
    
  C     0.789307  0.361988  2.859050
  C     0.630271  3.582755  2.684890
  C    -0.385560 -0.252622  2.270386
  C    -0.645853  3.252335  2.156464
  N     1.747470  0.560439  2.003902
  N     1.608974  3.840916  1.849849
  N    -0.368271 -0.398380  0.946364
  N    -0.714131  3.457452  0.845397
  N    -0.807152  0.062726  4.771556
  N    -1.054365  3.234381  4.700705
  S    -1.694536 -0.414200  3.398347
  S    -1.933135  3.060881  3.314268
  S     1.179498  0.131042  0.520002
  S     0.903862  3.646981  0.319227
  S     0.750592  0.625098  4.587827
  S     0.611105  3.495197  4.419436
