16  
    
  C     2.333727  0.784592  3.521976
  C     1.937060  5.083723  3.063768
  C     0.999709  0.673472  2.940663
  C     0.800319  4.451698  2.376142
  N     3.362558  0.686432  2.701197
  N     2.974731  5.473272  2.352061
  N     1.010928  0.656289  1.639350
  N     1.074807  4.211893  1.098955
  N     0.634823  1.111280  5.369520
  N     0.009145  4.786628  4.842116
  S    -0.264421  0.487353  4.168416
  S    -0.587624  4.092936  3.343135
  S     2.697027  0.637942  1.159504
  S     2.630101  4.769326  0.854742
  S     2.286161  1.109011  5.215480
  S     1.649964  5.246109  4.818468
