16  
    
  C    -4.326437 -1.725847  1.959703
  C    -4.152089  1.578838  1.889250
  C    -5.449832 -2.347882  1.330286
  C    -5.449894  1.096000  1.331821
  N    -3.280946 -1.723300  1.142335
  N    -3.167899  1.643943  1.006131
  N    -5.333314 -2.713064  0.076948
  N    -5.370610  0.741386  0.066840
  N    -5.944515 -2.176557  3.787543
  N    -5.821534  1.598376  3.824518
  S    -6.893456 -2.332000  2.407850
  S    -6.647803  0.958457  2.570190
  S    -3.761303 -2.341131 -0.333147
  S    -3.790984  1.045102 -0.474902
  S    -4.408970 -1.541387  3.654720
  S    -4.220519  1.861181  3.641945
