16  
    
  C    -0.206320 -0.358041  2.744687
  C     0.146635  3.519978  2.333861
  C    -1.309144 -0.940831  1.957428
  C    -1.018175  3.010763  1.719081
  N     0.878316 -0.124280  2.019487
  N     1.197901  3.646627  1.507198
  N    -1.069826 -0.962710  0.641903
  N    -0.953439  2.938731  0.392252
  N    -2.143727 -0.650268  4.468990
  N    -1.506290  2.832345  4.196819
  S    -2.756374 -0.994345  2.982482
  S    -2.378680  2.784149  2.808733
  S     0.506944 -0.472813  0.456510
  S     0.591810  3.489654 -0.030302
  S    -0.510331 -0.253636  4.535190
  S     0.080293  3.409835  4.036667
