16  
    
  C    -0.080242 -0.487298  2.597451
  C     0.069190  3.492127  2.356360
  C    -1.431165 -0.620031  2.026118
  C    -1.188189  3.264432  1.764296
  N     0.853900 -0.264906  1.664907
  N     1.053163  3.697803  1.485131
  N    -1.445377 -0.682262  0.705420
  N    -1.154905  3.154674  0.450118
  N    -1.791055 -0.376345  4.527181
  N    -1.693039  3.502044  4.292070
  S    -2.723660 -0.679626  3.194768
  S    -2.505451  3.047430  2.935566
  S     0.072455 -0.352791  0.243727
  S     0.435659  3.389054 -0.000253
  S    -0.156415 -0.103563  4.279587
  S    -0.041728  3.857133  4.025711
