16  
    
  C     0.907736  0.372462  2.838292
  C     0.612933  3.574990  2.774035
  C    -0.262585 -0.169923  2.222999
  C    -0.678677  3.307964  2.121569
  N     1.947931  0.588059  2.005590
  N     1.625797  3.666247  1.925358
  N    -0.213494 -0.183669  0.879301
  N    -0.623718  3.266985  0.792060
  N    -0.836260 -0.089240  4.793682
  N    -1.241866  3.270836  4.603731
  S    -1.556411 -0.558343  3.373474
  S    -1.979563  2.852312  3.187403
  S     1.366744  0.303214  0.452288
  S     0.978114  3.632475  0.367262
  S     0.738531  0.416548  4.610625
  S     0.436368  3.584155  4.460631
