16  
    
  C     1.312782  0.837558  3.228532
  C     1.143320  4.357452  3.003870
  C     0.063948  0.366839  2.697719
  C    -0.046705  3.952468  2.236052
  N     2.296634  0.828635  2.358226
  N     2.151037  4.763802  2.242278
  N     0.097976  0.064124  1.408608
  N     0.179362  3.851122  0.911423
  N    -0.250191  0.793458  5.160651
  N    -0.765741  3.985865  4.768188
  S    -1.138721  0.330644  3.890056
  S    -1.387171  3.626928  3.288326
  S     1.671427  0.265220  0.950857
  S     1.716501  4.347570  0.713578
  S     1.302736  1.200832  4.913456
  S     0.884423  4.375810  4.711258
