16  
    
  C    -1.053472 -0.418188  2.414436
  C    -1.152983  2.974144  2.353179
  C    -2.208931 -1.086745  1.748128
  C    -2.434936  2.853740  1.741532
  N     0.029799 -0.164396  1.621494
  N    -0.118536  3.117122  1.522671
  N    -2.059160 -1.144509  0.427222
  N    -2.325312  2.538851  0.460762
  N    -2.830493 -0.978556  4.223904
  N    -2.946372  3.178052  4.223147
  S    -3.518540 -1.442665  2.729290
  S    -3.758255  3.004046  2.796219
  S    -0.532129 -0.552920  0.072556
  S    -0.727525  2.662182  0.057567
  S    -1.248288 -0.448028  4.107568
  S    -1.307550  3.263962  4.119543
