16  
    
  C    -0.167733 -0.506313  2.673750
  C     0.049648  3.308688  2.493653
  C    -1.347648 -0.879794  1.889285
  C    -1.135426  2.895645  1.780662
  N     0.877059 -0.166669  1.930338
  N     1.136237  3.581553  1.760354
  N    -1.084190 -1.014389  0.585511
  N    -0.951627  2.737581  0.468098
  N    -2.077634 -0.853956  4.405985
  N    -1.784374  2.971757  4.269760
  S    -2.607785 -1.410074  2.970591
  S    -2.401767  2.301553  2.879662
  S     0.500047 -0.530541  0.318985
  S     0.593073  3.284921  0.183904
  S    -0.462331 -0.368654  4.380374
  S    -0.198452  3.506581  4.156191
