16  
    
  C     2.431577  1.094941  3.361923
  C     2.845236  5.444338  3.874748
  C     1.314226  0.644834  2.569927
  C     1.748840  4.664902  3.380187
  N     3.544044  1.216211  2.661942
  N     3.886089  5.534491  3.042460
  N     1.531811  0.362057  1.284808
  N     1.820093  4.312915  2.095738
  N     0.522558  0.988923  4.977164
  N     1.183391  5.363610  5.815708
  S    -0.056219  0.507153  3.587250
  S     0.406791  4.789815  4.399643
  S     3.147756  0.776909  1.076276
  S     3.371334  4.748059  1.652458
  S     2.114500  1.385448  5.031956
  S     2.819836  5.737463  5.541935
