16  
    
  C     0.883698  0.030993  2.871730
  C     0.428201  3.676667  2.937906
  C    -0.378207 -0.247683  2.291346
  C    -0.843927  3.668513  2.376722
  N     1.846298  0.331322  1.997960
  N     1.459095  3.933746  2.095413
  N    -0.283541 -0.525758  1.011454
  N    -0.830907  3.679640  1.044352
  N    -0.803429 -0.091632  4.759101
  N    -1.100043  3.217022  4.931501
  S    -1.722074 -0.232730  3.356183
  S    -2.071260  3.296872  3.555397
  S     1.205859 -0.062907  0.513583
  S     0.708914  3.912889  0.613552
  S     0.839843  0.218063  4.549031
  S     0.507317  3.333672  4.665457
