16  
    
  C     1.147972  0.200925  3.015124
  C     0.588363  3.787002  3.101932
  C    -0.039056 -0.269229  2.340702
  C    -0.407767  3.113298  2.369981
  N     2.218708  0.270431  2.217959
  N     1.688142  4.207587  2.439997
  N     0.143651 -0.424139  1.005532
  N    -0.186226  3.234321  1.035921
  N    -0.705162  0.019764  4.901232
  N    -1.366438  2.999905  4.712482
  S    -1.429431 -0.331720  3.431686
  S    -1.891424  2.646442  3.222004
  S     1.721247 -0.063173  0.673423
  S     1.303110  3.855197  0.848249
  S     0.912199  0.538189  4.792976
  S     0.141647  3.757712  4.803589
