16  
    
  C    -5.713971 -2.700300  1.519915
  C    -5.539650  0.876666  1.454054
  C    -6.856666 -3.254995  0.803244
  C    -6.734707  0.464783  0.798323
  N    -4.590874 -2.497072  0.844273
  N    -4.580864  1.125463  0.588313
  N    -6.639064 -3.312798 -0.519715
  N    -6.597702  0.239415 -0.533078
  N    -7.567241 -2.885709  3.320612
  N    -7.333569  0.856880  3.305617
  S    -8.347580 -3.224274  1.823260
  S    -8.053043  0.156549  1.888325
  S    -5.044002 -2.789282 -0.785826
  S    -5.028524  0.648115 -0.947898
  S    -5.886850 -2.623486  3.260047
  S    -5.654496  1.036381  3.205371
