16  
    
  C    -5.713969 -2.750039  1.484548
  C    -5.548515  0.909982  1.482228
  C    -6.884506 -3.117296  0.782135
  C    -6.736432  0.415794  0.841429
  N    -4.727791 -2.384505  0.666873
  N    -4.501949  0.974603  0.656496
  N    -6.742765 -3.269024 -0.516326
  N    -6.644008  0.263174 -0.509948
  N    -7.638413 -2.798762  3.167718
  N    -7.340745  0.849234  3.240224
  S    -8.252352 -3.265757  1.756254
  S    -8.100221  0.213481  1.933198
  S    -5.222075 -2.802005 -0.849890
  S    -5.064885  0.603112 -0.831719
  S    -6.023578 -2.638817  3.204513
  S    -5.731042  1.012201  3.179412
