16  
    
  C    -1.338069 -0.714774  1.968603
  C    -1.444529  3.369264  2.029248
  C    -2.509786 -1.424451  1.507093
  C    -2.553051  2.615516  1.399597
  N    -0.405482 -0.551045  1.009225
  N    -0.545492  3.828772  1.151030
  N    -2.558071 -1.609758  0.190438
  N    -2.380381  2.341109  0.090054
  N    -2.781672 -1.131597  4.039648
  N    -3.102233  2.768808  3.901403
  S    -3.776436 -1.494873  2.728140
  S    -3.812270  2.184877  2.512064
  S    -1.132568 -1.035938 -0.401553
  S    -0.903728  3.078725 -0.315505
  S    -1.236012 -0.568567  3.650254
  S    -1.620904  3.493066  3.763012
