16  
    
  C     1.153493  0.203224  2.905754
  C     0.735155  3.660107  3.170886
  C    -0.023585 -0.425393  2.431762
  C    -0.496640  3.458401  2.484679
  N     2.113558  0.328167  1.972020
  N     1.699904  4.103226  2.325619
  N    -0.015339 -0.828441  1.174829
  N    -0.352126  3.350949  1.147839
  N    -0.488779  0.148736  4.990311
  N    -0.999259  3.252275  5.025933
  S    -1.259685 -0.493518  3.702577
  S    -1.794039  3.071361  3.613029
  S     1.489334 -0.374959  0.620921
  S     1.219395  3.691804  0.848931
  S     1.059339  0.556695  4.644872
  S     0.630980  3.651180  4.898310
