16  
    
  C     3.644538  1.889204  3.618054
  C     3.207380  5.264408  3.487538
  C     2.429915  1.451514  3.008062
  C     1.974239  4.827061  2.844262
  N     4.636723  2.054756  2.722768
  N     4.233770  5.526259  2.661577
  N     2.501802  1.325098  1.690586
  N     2.160764  4.575860  1.564745
  N     1.990271  1.333655  5.540798
  N     1.552563  5.060250  5.347240
  S     1.050885  1.225427  4.134623
  S     0.744138  4.448431  3.982323
  S     4.070601  1.728391  1.257169
  S     3.694359  5.184056  1.200522
  S     3.462549  2.152826  5.303191
  S     3.178540  5.365971  5.151894
