16  
    
  C    -2.975669 -1.381569  2.100087
  C    -3.189508  1.856273  1.969065
  C    -4.212401 -1.779658  1.461303
  C    -4.378199  1.517621  1.166497
  N    -1.991879 -1.155990  1.255380
  N    -2.108044  1.883261  1.228961
  N    -4.080027 -1.917818  0.149565
  N    -4.144800  1.335709 -0.142731
  N    -4.641220 -1.676940  4.002816
  N    -5.102843  1.693712  3.648595
  S    -5.539817 -2.008278  2.593755
  S    -5.784313  1.207140  2.232617
  S    -2.491158 -1.566561 -0.238357
  S    -2.506639  1.624474 -0.352264
  S    -3.134866 -1.074387  3.785725
  S    -3.492795  1.998549  3.687617
