16  
    
  C     0.628027  0.333911  3.112897
  C     0.734617  3.989021  2.950029
  C    -0.619525  0.099519  2.470945
  C    -0.457100  3.395053  2.387265
  N     1.670008  0.227857  2.306412
  N     1.763728  4.035073  2.116461
  N    -0.531812  0.063041  1.168572
  N    -0.365740  3.166536  1.095411
  N    -1.101555  0.205217  4.934868
  N    -1.145952  3.836241  4.803485
  S    -1.927204  0.254774  3.529593
  S    -1.847132  3.174480  3.463967
  S     1.031820  0.109312  0.780383
  S     1.177601  3.368612  0.686007
  S     0.562221  0.504293  4.820665
  S     0.467623  4.384651  4.622467
