16  
    
  C     2.545298  1.119375  3.240735
  C     2.578769  5.018192  3.593945
  C     1.383505  0.658417  2.489174
  C     1.430071  4.294921  3.077750
  N     3.649535  1.180709  2.536616
  N     3.519867  5.274353  2.717521
  N     1.573704  0.479599  1.176106
  N     1.462302  4.067519  1.764843
  N     0.650516  1.132693  4.976896
  N     0.952151  4.858192  5.539675
  S     0.088014  0.407432  3.593911
  S     0.160034  4.224041  4.279261
  S     3.217747  0.814752  0.941374
  S     2.973035  4.621997  1.254987
  S     2.316275  1.332384  4.930200
  S     2.487158  5.350926  5.271430
