16  
    
  C    -4.010480 -1.715540  1.688835
  C    -3.766563  1.544070  1.827093
  C    -5.126255 -2.329323  1.004672
  C    -5.075387  1.395125  1.138778
  N    -2.929958 -1.719725  0.935436
  N    -2.808812  1.748728  0.940924
  N    -4.965570 -2.607714 -0.285188
  N    -5.007348  1.252955 -0.171637
  N    -5.794925 -2.041445  3.505813
  N    -5.502469  1.507431  3.657750
  S    -6.577392 -2.357238  2.056710
  S    -6.351365  1.249375  2.249355
  S    -3.386408 -2.229628 -0.580703
  S    -3.456287  1.526460 -0.542704
  S    -4.218828 -1.483479  3.403850
  S    -3.844759  1.748341  3.503044
