16  
    
  C    -4.349968 -2.485717  1.482984
  C    -4.455289  1.630186  1.960705
  C    -5.507083 -2.906902  0.771588
  C    -5.608203  0.976349  1.346956
  N    -3.255054 -2.153686  0.762175
  N    -3.459606  1.747242  1.094382
  N    -5.320156 -2.992497 -0.513688
  N    -5.539069  0.829018  0.008855
  N    -6.270052 -2.870826  3.315474
  N    -5.960008  1.057461  3.914367
  S    -6.898732 -3.286183  1.807371
  S    -6.802280  0.618971  2.514642
  S    -3.773774 -2.412834 -0.829620
  S    -4.027272  1.274994 -0.359763
  S    -4.701816 -2.339048  3.186259
  S    -4.383265  1.753608  3.686262
