16  
    
  C    -0.980085 -0.711568  2.265784
  C    -0.760219  2.925728  2.521859
  C    -2.114390 -1.457114  1.700302
  C    -2.003726  2.669332  1.831132
  N     0.088607 -0.692337  1.451107
  N     0.286020  2.972179  1.705036
  N    -1.920248 -1.693971  0.372729
  N    -1.870002  2.393830  0.526132
  N    -2.847421 -0.707470  4.060116
  N    -2.480984  2.774437  4.391985
  S    -3.525381 -1.581931  2.763570
  S    -3.297257  2.412642  2.998476
  S    -0.380225 -1.333986  0.014675
  S    -0.269913  2.756949  0.171481
  S    -1.278655 -0.256936  3.847300
  S    -0.892471  3.275856  4.168318
