16  
    
  C    -4.206912 -2.192769  2.124187
  C    -4.172366  1.410929  1.905392
  C    -5.529729 -2.346105  1.465890
  C    -5.371266  1.128788  1.240885
  N    -3.245721 -2.045232  1.191741
  N    -3.112531  1.401854  1.085500
  N    -5.515680 -2.438059  0.141089
  N    -5.292180  1.047425 -0.105515
  N    -5.929598 -1.981254  3.994172
  N    -5.997606  1.412002  3.838825
  S    -6.822309 -2.483138  2.651936
  S    -6.765055  1.120063  2.356009
  S    -3.966549 -2.163785 -0.278698
  S    -3.714357  1.192674 -0.451074
  S    -4.234337 -1.796751  3.786602
  S    -4.353621  1.621158  3.665607
