16  
    
  C    -0.016927 -0.615233  2.510906
  C    -0.230127  3.023139  2.593185
  C    -1.224952 -1.175540  1.904672
  C    -1.493204  2.618238  2.067312
  N     0.987435 -0.581601  1.649249
  N     0.757995  3.326206  1.752463
  N    -1.146650 -1.256341  0.578699
  N    -1.471156  2.518851  0.731201
  N    -1.647525 -0.724618  4.413793
  N    -1.912220  2.870713  4.583747
  S    -2.524189 -1.207221  3.045512
  S    -2.740184  2.358436  3.248677
  S     0.396778 -0.938409  0.131591
  S     0.072273  2.960262  0.244202
  S    -0.041239 -0.340934  4.225965
  S    -0.308826  3.417861  4.335248
