16  
    
  C    -5.326659 -2.665997  1.358078
  C    -5.428604  1.078939  1.263888
  C    -6.525117 -3.204079  0.789562
  C    -6.546467  0.453630  0.585099
  N    -4.404727 -2.398489  0.446579
  N    -4.357893  1.434194  0.563635
  N    -6.540010 -3.411830 -0.505245
  N    -6.450057  0.428086 -0.741863
  N    -6.897839 -3.054276  3.361079
  N    -7.202985  0.486283  3.096361
  S    -7.707726 -3.502230  1.945615
  S    -7.932305  0.140388  1.652743
  S    -5.055796 -2.832248 -0.993608
  S    -4.947974  1.153648 -1.034037
  S    -5.351112 -2.570018  3.074415
  S    -5.726045  1.154908  2.964227
