16  
    
  C     2.545481  1.128005  3.244682
  C     2.554697  4.652111  3.540540
  C     1.329265  0.807960  2.492269
  C     1.339454  4.390926  2.762328
  N     3.590312  1.297166  2.471686
  N     3.549238  5.044805  2.749183
  N     1.425669  0.799398  1.159947
  N     1.466306  4.311271  1.451762
  N     0.692940  0.781102  4.999642
  N     0.524150  4.435542  5.185908
  S     0.049337  0.296732  3.503745
  S     0.004367  3.926274  3.741739
  S     3.040145  1.099060  0.843833
  S     3.051320  4.733987  1.134871
  S     2.330345  0.957133  4.991585
  S     2.118897  4.967847  5.239834
