16  
    
  C     1.573927  0.715253  2.862606
  C     0.834747  4.211491  2.458034
  C     0.347625  0.358928  2.249075
  C    -0.269839  3.392902  1.888236
  N     2.543560  0.868335  1.977482
  N     1.889168  4.268237  1.652833
  N     0.368926  0.271885  0.899023
  N    -0.113211  3.130349  0.595444
  N    -0.174232  0.347481  4.835005
  N    -0.851767  3.810356  4.365152
  S    -0.934535 -0.047788  3.345635
  S    -1.614069  3.118433  3.014183
  S     1.920329  0.657523  0.436556
  S     1.377095  3.656879  0.178638
  S     1.419939  0.855424  4.593086
  S     0.695564  4.192599  4.173652
