16  
    
  C     1.386727  0.655876  3.098641
  C     1.090924  4.264469  2.831967
  C     0.111400  0.233267  2.508462
  C    -0.122859  3.855155  2.044373
  N     2.388619  0.807604  2.273877
  N     2.182292  4.663999  2.124541
  N     0.142377  0.111501  1.190458
  N     0.168270  3.598157  0.769658
  N    -0.339150  0.725673  4.979360
  N    -0.859360  3.849182  4.500797
  S    -1.155174  0.185944  3.664691
  S    -1.476895  3.343897  3.001113
  S     1.695700  0.482556  0.730180
  S     1.698636  4.213283  0.532766
  S     1.243941  1.026520  4.847903
  S     0.682697  4.346644  4.495548
