16  
    
  C    -3.803841 -2.464618  1.611923
  C    -3.344670  1.691434  1.596647
  C    -5.091260 -2.336975  0.963921
  C    -4.565051  1.067905  1.024856
  N    -2.785859 -2.274744  0.806382
  N    -2.364447  1.951546  0.753459
  N    -5.074835 -2.128471 -0.355435
  N    -4.479715  0.925502 -0.277440
  N    -5.569211 -2.583618  3.509871
  N    -5.091212  1.488401  3.495594
  S    -6.448272 -2.751370  2.078710
  S    -5.896566  0.949481  2.101471
  S    -3.470220 -2.055163 -0.738023
  S    -3.023962  1.495948 -0.746905
  S    -3.923638 -2.594717  3.346621
  S    -3.560104  2.182701  3.202601
