16  
    
  C    -0.107718 -0.504113  2.772462
  C     0.187701  3.326993  2.398456
  C    -1.308118 -0.828733  2.039984
  C    -1.017458  2.904761  1.691099
  N     0.947250 -0.159051  2.063555
  N     1.172234  3.663645  1.601899
  N    -1.067742 -1.007134  0.765479
  N    -0.987327  2.989607  0.368959
  N    -2.138072 -0.654291  4.366779
  N    -1.595823  2.848729  4.256269
  S    -2.710252 -1.242244  2.935960
  S    -2.331456  2.570019  2.753371
  S     0.452892 -0.461324  0.461459
  S     0.585744  3.364947  0.015237
  S    -0.527402 -0.264639  4.393891
  S    -0.026909  3.474137  4.170013
