16  
    
  C    -4.303478 -1.742376  1.912043
  C    -4.184222  1.541486  1.865045
  C    -5.487704 -2.394125  1.343272
  C    -5.451679  1.109940  1.334875
  N    -3.245758 -1.726839  1.120719
  N    -3.172644  1.685865  0.975205
  N    -5.287892 -2.747187  0.057836
  N    -5.306205  0.685486  0.059061
  N    -5.966391 -2.198804  3.758163
  N    -5.835182  1.659158  3.838812
  S    -6.887176 -2.309807  2.389897
  S    -6.643367  0.954511  2.580282
  S    -3.765420 -2.346156 -0.344591
  S    -3.800744  1.038852 -0.495925
  S    -4.418800 -1.520345  3.616050
  S    -4.228394  1.882910  3.666498
