16  
    
  C     3.225054  1.573341  3.739293
  C     3.203079  4.986187  3.464077
  C     1.973723  1.215342  3.111898
  C     1.990105  4.572285  2.783863
  N     4.259576  1.683737  2.884439
  N     4.262421  5.129409  2.682147
  N     2.113522  1.045712  1.804117
  N     2.083552  4.561709  1.473563
  N     1.348949  1.529211  5.527867
  N     1.371577  5.155512  5.215933
  S     0.579328  1.175588  4.072737
  S     0.591460  4.633381  3.805578
  S     3.671946  1.335976  1.378701
  S     3.727465  4.790157  1.105645
  S     3.010004  1.738541  5.486806
  S     3.031480  5.231417  5.183062
