16  
    
  C     2.370777  0.922128  3.491627
  C     1.966905  4.874636  3.015482
  C     1.061426  0.663164  2.878386
  C     0.862589  4.262780  2.310114
  N     3.358651  0.959353  2.598687
  N     2.937066  5.207125  2.210910
  N     1.050161  0.490673  1.575425
  N     1.059593  3.948975  1.007202
  N     0.651200  0.856818  5.397532
  N     0.221493  4.358630  4.931312
  S    -0.259717  0.624392  4.051670
  S    -0.564455  4.132612  3.400863
  S     2.658651  0.616591  1.072324
  S     2.528813  4.665700  0.667769
  S     2.245803  1.029006  5.266755
  S     1.760974  5.102810  4.802322
