16  
    
  C     1.129080  0.149051  2.934208
  C     0.815930  3.837009  3.095872
  C    -0.153510 -0.401936  2.482066
  C    -0.400352  3.371822  2.507022
  N     2.025431  0.294077  1.989506
  N     1.815323  3.823916  2.236475
  N    -0.129909 -0.782490  1.221964
  N    -0.416744  3.248099  1.200085
  N    -0.343872  0.013833  4.939920
  N    -0.831360  3.368857  5.069548
  S    -1.369783 -0.558620  3.711536
  S    -1.730647  3.226841  3.621388
  S     1.365832 -0.338334  0.611406
  S     1.156436  3.624495  0.717314
  S     1.201358  0.499466  4.627231
  S     0.755675  3.806337  4.869786
