16  
    
  C     1.497069  0.848630  3.426185
  C     1.230249  4.703693  3.246730
  C     0.209663  0.438537  2.910175
  C    -0.031047  4.114144  2.778964
  N     2.539933  0.824631  2.558160
  N     2.167482  4.760040  2.306389
  N     0.248013  0.108559  1.605786
  N    -0.083602  3.984789  1.475898
  N    -0.219759  0.942258  5.378621
  N    -0.158261  4.225270  5.371461
  S    -1.118564  0.466181  4.019706
  S    -1.174325  4.003875  3.985018
  S     1.811840  0.363596  1.095222
  S     1.462399  4.353289  0.845348
  S     1.345277  1.246052  5.113748
  S     1.419729  4.656734  4.965947
