16  
    
  C    -5.458584 -2.649174  1.575853
  C    -5.523080  0.908343  1.360708
  C    -6.668080 -3.095828  0.883011
  C    -6.696585  0.445826  0.741150
  N    -4.381148 -2.676801  0.802877
  N    -4.549286  1.242787  0.514270
  N    -6.587101 -3.124702 -0.457374
  N    -6.502271  0.303985 -0.578419
  N    -7.269790 -3.342930  3.372773
  N    -7.197775  0.460870  3.259982
  S    -8.036289 -3.357167  1.892624
  S    -8.022504  0.134501  1.776698
  S    -4.966829 -3.041761 -0.772753
  S    -5.017663  0.849045 -0.992099
  S    -5.789963 -2.539944  3.307020
  S    -5.696416  1.214757  3.100138
