16  
    
  C     1.922247  0.482531  3.073669
  C     1.884993  4.281030  3.277331
  C     0.591920  0.237985  2.578919
  C     0.618899  3.930065  2.650755
  N     2.876114  0.532258  2.148825
  N     2.855021  4.252212  2.396352
  N     0.517158  0.169959  1.257349
  N     0.605542  3.870025  1.342282
  N     0.282162  0.316483  5.111246
  N     0.107964  4.146029  5.152230
  S    -0.681623  0.145008  3.784610
  S    -0.705920  4.039928  3.736285
  S     2.077506  0.398594  0.658593
  S     2.215653  4.179851  0.810638
  S     1.892302  0.769801  4.844812
  S     1.811558  4.176107  5.017495
