16  
    
  C    -2.734852 -1.468090  2.010634
  C    -3.161980  1.889294  1.880636
  C    -3.974443 -1.952781  1.425667
  C    -4.305116  1.455735  1.103132
  N    -1.747581 -1.402910  1.122678
  N    -2.111097  2.130911  1.092566
  N    -3.938390 -2.127983  0.119225
  N    -4.051831  1.166229 -0.163323
  N    -4.550792 -1.696735  3.885835
  N    -5.111210  1.681210  3.447782
  S    -5.373479 -1.919000  2.506268
  S    -5.724607  1.140236  1.980922
  S    -2.390051 -1.769275 -0.419935
  S    -2.472078  1.689762 -0.441200
  S    -2.905380 -1.312238  3.732184
  S    -3.503716  2.128930  3.561038
