16  
    
  C     3.558307  2.173146  3.582871
  C     3.458275  5.264342  3.525075
  C     2.441717  1.599272  2.902967
  C     2.190602  5.020363  2.935891
  N     4.651081  2.314720  2.801670
  N     4.434768  5.608308  2.646196
  N     2.715802  1.328174  1.622456
  N     2.234193  4.837656  1.625915
  N     1.808742  1.880463  5.417112
  N     1.676591  4.888208  5.507575
  S     1.152218  1.363288  3.958384
  S     0.947856  4.592483  4.026955
  S     4.312101  1.726321  1.366868
  S     3.806406  5.169696  1.153134
  S     3.447744  2.179001  5.334089
  S     3.245631  5.358525  5.327542
