16  
    
  C    -0.803286 -0.800665  2.362341
  C    -0.770975  3.139781  2.441974
  C    -1.927310 -1.342122  1.719647
  C    -1.980260  2.664566  1.819212
  N     0.197616 -0.474374  1.543067
  N     0.193377  3.244826  1.555305
  N    -1.736524 -1.822364  0.460643
  N    -1.932141  2.392341  0.532950
  N    -2.745111 -0.912906  4.069499
  N    -2.438683  2.763241  4.405243
  S    -3.400593 -1.533636  2.680638
  S    -3.284942  2.590063  2.986360
  S    -0.189756 -1.242424  0.064980
  S    -0.413745  2.864459  0.065754
  S    -1.156199 -0.485870  4.018758
  S    -0.829019  3.249139  4.160268
