16  
    
  C    -5.322138 -2.667370  1.343164
  C    -5.437727  1.091860  1.291991
  C    -6.570776 -3.090718  0.792668
  C    -6.542233  0.454705  0.605094
  N    -4.399094 -2.334473  0.468897
  N    -4.374707  1.417646  0.550023
  N    -6.581549 -3.365235 -0.520587
  N    -6.423821  0.446585 -0.734948
  N    -6.881016 -3.084520  3.341198
  N    -7.152986  0.477721  3.072491
  S    -7.722841 -3.479209  1.963273
  S    -7.943360  0.137698  1.649035
  S    -5.035344 -2.839364 -0.996457
  S    -4.942677  1.152242 -1.046776
  S    -5.360677 -2.536298  3.045358
  S    -5.712213  1.168262  2.967859
