16  
    
  C     3.354556  1.535851  3.531034
  C     3.167062  5.146200  3.496460
  C     2.042869  1.437224  2.981417
  C     1.930367  4.847253  2.854922
  N     4.313765  1.464080  2.614380
  N     4.238864  5.007616  2.698871
  N     1.967487  1.299248  1.665565
  N     1.996357  4.559678  1.569024
  N     1.634156  1.573856  5.520259
  N     1.358588  5.122813  5.397945
  S     0.779502  1.429065  4.120996
  S     0.593441  4.720607  4.020792
  S     3.519893  1.317846  1.103253
  S     3.616177  4.642373  1.144970
  S     3.273247  1.568311  5.266129
  S     3.000580  5.293880  5.209357
