16  
    
  C    -4.152235 -2.080433  1.853688
  C    -4.134821  1.367985  1.801547
  C    -5.462585 -2.151049  1.324609
  C    -5.414550  1.194585  1.064925
  N    -3.185910 -2.053663  0.908048
  N    -3.029962  1.260088  1.043688
  N    -5.562975 -2.447233  0.024658
  N    -5.222709  1.160138 -0.253199
  N    -5.659683 -2.183885  3.937709
  N    -6.070006  1.530719  3.490898
  S    -6.675589 -2.283203  2.609798
  S    -6.840929  1.271057  2.011525
  S    -4.007543 -2.460851 -0.502572
  S    -3.632235  1.155309 -0.546100
  S    -4.064790 -2.015804  3.535091
  S    -4.349062  1.585380  3.455491
