16  
    
  C     2.516131  1.072175  3.254662
  C     3.001629  5.376483  3.873231
  C     1.351491  0.523861  2.625303
  C     1.712942  4.902866  3.357809
  N     3.520983  1.281388  2.365328
  N     4.037869  5.166894  3.015258
  N     1.522782  0.274587  1.335098
  N     1.745268  4.688697  2.020713
  N     0.642725  0.847804  5.042144
  N     1.229670  5.729154  5.803653
  S    -0.128461  0.345970  3.633636
  S     0.345560  5.265673  4.422418
  S     3.067434  0.762132  0.924762
  S     3.319478  4.805242  1.573531
  S     2.185404  1.338084  4.956028
  S     2.909748  5.877653  5.546750
