16  
    
  C     1.044298  0.258300  2.996831
  C     0.593038  3.671121  2.959134
  C    -0.132618 -0.083112  2.223391
  C    -0.561526  3.113333  2.168439
  N     2.104093  0.518392  2.266267
  N     1.554199  4.257554  2.228587
  N     0.071289 -0.126866  0.923263
  N    -0.217355  2.910642  0.913951
  N    -0.827001 -0.200538  4.754000
  N    -1.495047  3.157977  4.493224
  S    -1.539369 -0.335664  3.294333
  S    -1.946434  2.564273  3.052229
  S     1.680322  0.310178  0.616970
  S     1.285897  3.667776  0.629611
  S     0.837257  0.228708  4.790856
  S     0.059966  3.751718  4.599689
