16  
    
  C    -0.590330 -0.311167  2.600383
  C    -0.409384  3.438962  2.647821
  C    -1.816612 -0.749456  2.033069
  C    -1.441413  2.518290  2.101577
  N     0.457090 -0.252181  1.803140
  N     0.710065  3.493921  1.914571
  N    -1.765638 -0.925262  0.731248
  N    -1.116081  2.143803  0.859963
  N    -2.271006 -0.783666  4.562242
  N    -2.256040  3.084707  4.479672
  S    -3.168615 -1.023456  3.192878
  S    -2.789078  2.289589  3.105831
  S    -0.177747 -0.729373  0.339609
  S     0.351661  2.804348  0.457336
  S    -0.715214 -0.210030  4.350761
  S    -0.695012  3.759342  4.342112
