16  
    
  C    -4.555086 -2.282995  1.497493
  C    -4.389494  1.395455  1.904104
  C    -5.599395 -2.874033  0.732900
  C    -5.576054  0.743354  1.348664
  N    -3.527801 -1.824088  0.771678
  N    -3.469518  1.779549  0.990129
  N    -5.417747 -2.903716 -0.586300
  N    -5.589457  0.736029  0.011611
  N    -6.378965 -2.991501  3.216773
  N    -5.930813  0.862935  3.974074
  S    -7.031018 -3.274924  1.669735
  S    -6.815176  0.468923  2.569781
  S    -3.883432 -2.199189 -0.798483
  S    -4.117773  1.462268 -0.508566
  S    -4.801105 -2.410649  3.244586
  S    -4.436610  1.560398  3.726546
