16  
    
  C     0.035909 -0.773121  2.572556
  C    -0.298925  3.146262  2.583065
  C    -1.264732 -1.166976  1.953891
  C    -1.498670  2.674021  2.079111
  N     0.976738 -0.486963  1.654365
  N     0.691213  3.293210  1.730238
  N    -1.177436 -1.501211  0.639986
  N    -1.441769  2.432384  0.772670
  N    -1.724483 -0.688357  4.464333
  N    -1.863269  2.915325  4.596395
  S    -2.514168 -1.150578  3.107899
  S    -2.777596  2.434298  3.294707
  S     0.377424 -0.975562  0.209202
  S     0.050206  3.000331  0.260685
  S    -0.089775 -0.355438  4.221024
  S    -0.322138  3.309884  4.285588
