16  
    
  C    -4.170000 -2.232239  2.038612
  C    -4.186853  1.444758  1.890173
  C    -5.495752 -2.473897  1.494043
  C    -5.423890  1.183695  1.191528
  N    -3.250429 -2.083508  1.104470
  N    -3.123580  1.438378  1.108239
  N    -5.581427 -2.485555  0.162615
  N    -5.306379  1.072567 -0.111086
  N    -5.802772 -2.158389  4.054409
  N    -5.995712  1.500203  3.608953
  S    -6.748829 -2.361159  2.749351
  S    -6.863251  1.203051  2.184088
  S    -4.000940 -2.194375 -0.349909
  S    -3.660118  1.187054 -0.382754
  S    -4.200555 -1.934946  3.722868
  S    -4.368026  1.502359  3.575055
