16  
    
  C     0.718405 -0.308191  2.803590
  C     0.387535  3.507092  2.920704
  C    -0.599977 -0.338039  2.206225
  C    -0.918258  3.332496  2.253971
  N     1.694298 -0.108501  1.920833
  N     1.453678  3.767322  2.137735
  N    -0.604661 -0.341615  0.874941
  N    -0.788942  3.523065  0.951106
  N    -0.922709 -0.365654  4.766098
  N    -1.390391  3.110674  4.769744
  S    -1.797427 -0.649761  3.369726
  S    -2.192112  2.899322  3.352186
  S     1.003122 -0.107174  0.399958
  S     0.806525  3.860066  0.615149
  S     0.690150 -0.051705  4.526115
  S     0.275154  3.403527  4.651438
