16  
    
  C    -4.145176 -2.067441  1.862723
  C    -4.137723  1.400911  1.759799
  C    -5.486177 -2.151875  1.340209
  C    -5.423191  1.176338  1.075851
  N    -3.207020 -2.034837  0.922054
  N    -3.030062  1.267555  1.028890
  N    -5.571244 -2.469803  0.029266
  N    -5.205305  1.166123 -0.244526
  N    -5.652597 -2.212541  3.942293
  N    -6.083611  1.538293  3.502257
  S    -6.663697 -2.282039  2.617433
  S    -6.842960  1.268458  2.042233
  S    -4.028211 -2.456404 -0.465881
  S    -3.626298  1.154758 -0.535306
  S    -4.073722 -2.031516  3.560486
  S    -4.382692  1.565161  3.473554
