16  
    
  C     2.310740  1.019292  3.504004
  C     2.046693  4.894211  3.194281
  C     1.011126  0.650612  2.963282
  C     0.875388  4.532403  2.461505
  N     3.272429  1.120717  2.557446
  N     3.086829  5.222712  2.431061
  N     1.059463  0.339871  1.677963
  N     1.098638  4.540863  1.168601
  N     0.620080  0.860239  5.445928
  N     0.094616  4.521126  4.845983
  S    -0.323755  0.692530  4.059593
  S    -0.547048  4.180387  3.319904
  S     2.526957  0.629991  1.151171
  S     2.650587  4.927795  0.858896
  S     2.234779  1.139815  5.270880
  S     1.657013  5.235639  4.903679
