16  
    
  C     2.157725  1.301006  3.416981
  C     2.255072  4.724588  3.237992
  C     0.983710  0.833227  2.730549
  C     1.036025  4.253237  2.565801
  N     3.164268  1.587386  2.647854
  N     3.299115  4.922424  2.448663
  N     1.140477  0.648763  1.421528
  N     1.007210  4.435852  1.240543
  N     0.533747  0.746294  5.289710
  N     0.604077  4.240744  5.120424
  S    -0.288516  0.489113  3.825774
  S    -0.161971  3.860442  3.719374
  S     2.775199  1.133210  1.121438
  S     2.626703  4.857717  0.949381
  S     2.121321  1.076114  5.122751
  S     2.230950  4.746401  4.962432
