16  
    
  C    -0.811046 -0.764664  2.342717
  C    -0.723017  3.055522  2.473766
  C    -1.923127 -1.428632  1.705386
  C    -1.983812  2.689459  1.831174
  N     0.192094 -0.522163  1.524618
  N     0.208603  3.298277  1.548693
  N    -1.700739 -1.824678  0.506245
  N    -1.939039  2.383980  0.521686
  N    -2.769110 -0.954001  4.058451
  N    -2.441141  2.747255  4.424144
  S    -3.423503 -1.506991  2.669295
  S    -3.259456  2.572768  2.967172
  S    -0.218803 -1.254868  0.050896
  S    -0.400333  2.833004  0.060679
  S    -1.172271 -0.440785  3.987289
  S    -0.829391  3.242674  4.166106
