16  
    
  C    -2.117102 -1.141598  2.016691
  C    -2.673555  2.586252  2.132297
  C    -3.241308 -1.857748  1.436386
  C    -3.869588  1.995160  1.567581
  N    -1.213150 -0.610333  1.161523
  N    -1.651008  2.818997  1.314707
  N    -3.090595 -2.005950  0.107158
  N    -3.684813  1.684391  0.307290
  N    -3.606263 -1.854979  3.941108
  N    -4.390321  2.423640  4.092057
  S    -4.447021 -2.285612  2.597062
  S    -5.131050  1.823468  2.734919
  S    -1.676637 -1.219612 -0.321044
  S    -2.196710  2.262030 -0.192856
  S    -2.205384 -0.911479  3.710681
  S    -2.773984  2.850948  3.850156
