16  
    
  C    -4.797249 -2.348797  1.801919
  C    -5.047910  1.192690  1.739772
  C    -6.023824 -2.862500  1.222012
  C    -6.170791  0.464835  1.133843
  N    -3.810184 -2.097908  0.949597
  N    -3.915602  1.291311  1.007830
  N    -5.931288 -3.083487 -0.089570
  N    -5.946996  0.248884 -0.179540
  N    -6.381511 -3.022843  3.726527
  N    -6.852301  0.948418  3.608246
  S    -7.293982 -3.250158  2.316916
  S    -7.495378  0.139347  2.210091
  S    -4.389556 -2.582006 -0.537392
  S    -4.409256  0.747116 -0.496349
  S    -4.941343 -2.155632  3.495262
  S    -5.253000  1.497354  3.448408
