16  
    
  C     2.488195  1.054561  3.248411
  C     2.987086  5.314243  3.908580
  C     1.298617  0.511539  2.590961
  C     1.710693  4.892990  3.352115
  N     3.503298  1.281903  2.409910
  N     4.034211  5.238702  3.075041
  N     1.516397  0.261482  1.304706
  N     1.755866  4.711695  2.040597
  N     0.630934  0.919923  5.043094
  N     1.229210  5.760007  5.766405
  S    -0.146306  0.350730  3.640111
  S     0.342590  5.218977  4.432902
  S     3.071971  0.757237  0.920943
  S     3.338018  4.817041  1.604648
  S     2.202373  1.337221  4.951914
  S     2.909375  5.893480  5.517568
