16  
    
  C     2.722267  1.342700  3.670393
  C     2.968691  5.181021  3.610269
  C     1.488686  1.045731  2.956625
  C     1.701009  4.937127  2.961024
  N     3.791228  1.524180  2.909449
  N     4.022568  5.211337  2.771019
  N     1.651145  0.979280  1.650189
  N     1.777418  4.928419  1.629710
  N     0.958179  0.724077  5.407447
  N     1.110030  5.056456  5.471412
  S     0.160671  0.599365  3.924332
  S     0.291070  5.045096  4.037525
  S     3.284138  1.261736  1.331978
  S     3.429483  4.912824  1.261114
  S     2.556602  1.265895  5.402613
  S     2.763729  5.233686  5.388706
