16  
    
  C    -0.112075  0.061407  2.500806
  C    -0.005368  3.586223  2.444625
  C    -1.411874 -0.475171  2.055219
  C    -1.246371  3.109033  1.893373
  N     0.823490  0.221062  1.578620
  N     0.918764  3.955476  1.540463
  N    -1.382632 -0.779600  0.780836
  N    -1.110319  2.722024  0.599303
  N    -1.657203 -0.330606  4.591219
  N    -1.709986  3.512205  4.368893
  S    -2.643816 -0.744576  3.278550
  S    -2.527280  2.946869  2.985509
  S     0.093192 -0.393507  0.195195
  S     0.446785  3.174246  0.146793
  S    -0.069831 -0.050193  4.232713
  S    -0.183937  4.029925  4.139693
