16  
    
  C    -2.665391 -1.849613  1.998909
  C    -2.896128  2.252357  1.857966
  C    -3.927615 -2.033649  1.300822
  C    -4.087648  1.738236  1.120607
  N    -1.560694 -1.894917  1.231602
  N    -1.916947  2.683399  1.079780
  N    -3.779063 -2.228028  0.001686
  N    -3.858689  1.654170 -0.174195
  N    -4.631442 -1.876117  3.690068
  N    -4.773913  1.784953  3.585126
  S    -5.349756 -2.213047  2.262291
  S    -5.457834  1.434642  2.134342
  S    -2.203329 -2.100963 -0.329513
  S    -2.358853  2.269313 -0.511851
  S    -2.940512 -1.743199  3.732019
  S    -3.208269  2.329344  3.642912
