16  
    
  C    -1.266542 -0.819209  2.120059
  C    -1.506636  3.053139  2.031685
  C    -2.498784 -1.405862  1.528289
  C    -2.606830  2.368300  1.336831
  N    -0.241801 -0.660962  1.266127
  N    -0.576118  3.495943  1.170953
  N    -2.431372 -1.456035  0.216737
  N    -2.394716  2.103443  0.023190
  N    -3.119250 -1.024696  4.008337
  N    -3.250277  2.636633  3.806167
  S    -3.833097 -1.634387  2.628758
  S    -3.887152  1.935400  2.435691
  S    -0.880839 -0.988975 -0.265833
  S    -0.943952  2.903453 -0.325790
  S    -1.447893 -0.778810  3.842023
  S    -1.795511  3.426313  3.711632
