16  
    
  C     2.692889  1.127078  3.526000
  C     2.963300  4.824150  3.694714
  C     1.549161  0.673711  2.757788
  C     1.633802  4.983255  3.101974
  N     3.743873  1.524216  2.805108
  N     3.950039  4.908776  2.791284
  N     1.704110  0.744379  1.447826
  N     1.621477  4.886420  1.782729
  N     0.746219  0.843397  5.161765
  N     1.272690  5.536908  5.556861
  S     0.116714  0.382140  3.653380
  S     0.354116  5.284017  4.199946
  S     3.180014  1.331452  1.173940
  S     3.166744  4.782086  1.269220
  S     2.419643  1.065836  5.290278
  S     2.920179  5.371128  5.381066
