16  
    
  C     2.355957  1.056513  3.240491
  C     2.948662  5.279519  3.952646
  C     1.229203  0.505781  2.525078
  C     1.690218  4.962944  3.320776
  N     3.436366  1.208177  2.519837
  N     3.963245  5.338456  3.104229
  N     1.446955  0.280393  1.220465
  N     1.794527  4.657876  2.042086
  N     0.531053  1.137060  4.995833
  N     1.214805  5.833483  5.689256
  S    -0.080440  0.384742  3.645780
  S     0.393767  5.040096  4.475860
  S     3.052512  0.765786  1.001572
  S     3.417007  4.860312  1.688437
  S     2.226008  1.316371  4.914004
  S     2.834809  5.919207  5.531085
