16  
    
  C    -3.849541 -2.288594  1.662796
  C    -3.538293  2.073278  1.663407
  C    -5.124143 -2.461855  1.043996
  C    -4.698812  1.407917  1.040750
  N    -2.893937 -1.872171  0.784372
  N    -2.581304  2.181780  0.730743
  N    -5.058958 -2.489912 -0.302759
  N    -4.649368  1.280850 -0.288337
  N    -5.645454 -2.469965  3.575488
  N    -5.175631  1.515252  3.578318
  S    -6.478826 -2.716330  2.185449
  S    -5.940886  0.970630  2.209335
  S    -3.530393 -2.031859 -0.730059
  S    -3.126124  1.749013 -0.713933
  S    -3.960429 -2.404514  3.425070
  S    -3.668855  2.129720  3.344649
