16  
    
  C    -5.747041 -2.962934  1.205204
  C    -5.803778  0.842051  1.602188
  C    -6.941168 -3.521536  0.671706
  C    -6.920367  0.267648  0.930258
  N    -4.929442 -2.425374  0.319492
  N    -4.849535  1.167850  0.725766
  N    -6.856315 -3.730319 -0.652496
  N    -6.825167  0.136875 -0.396827
  N    -7.412087 -3.102642  3.175344
  N    -7.628810  0.644383  3.445003
  S    -8.113268 -3.833754  1.881459
  S    -8.276866 -0.041692  2.043756
  S    -5.437838 -2.972289 -1.155405
  S    -5.356293  0.759198 -0.773326
  S    -5.828134 -2.810382  2.938654
  S    -6.052184  1.016218  3.285759
