16  
    
  C    -2.126482 -1.214400  2.000091
  C    -2.662563  2.624096  2.170338
  C    -3.276684 -1.841217  1.403741
  C    -3.823434  1.905453  1.630119
  N    -1.290784 -0.590766  1.187336
  N    -1.653986  2.798086  1.305777
  N    -3.088132 -2.025921  0.101863
  N    -3.672228  1.670857  0.311557
  N    -3.662858 -1.810448  3.970503
  N    -4.396272  2.394631  4.132071
  S    -4.457925 -2.318140  2.594575
  S    -5.159957  1.792418  2.747629
  S    -1.696272 -1.199641 -0.309831
  S    -2.216933  2.304770 -0.160141
  S    -2.211755 -0.916240  3.725614
  S    -2.792951  2.848762  3.855654
