16  
    
  C     2.065596  0.603905  3.213865
  C     2.030565  4.355427  3.060198
  C     0.766909  0.295001  2.644203
  C     0.785498  4.084347  2.373667
  N     3.041168  0.689737  2.305909
  N     3.019388  4.400469  2.226049
  N     0.780446  0.034394  1.350527
  N     0.856012  3.632499  1.130249
  N     0.408869  0.853954  5.135786
  N     0.273474  4.334480  4.917093
  S    -0.532236  0.669719  3.737646
  S    -0.512924  3.930742  3.534488
  S     2.384743  0.349584  0.802993
  S     2.523488  3.982027  0.682834
  S     2.050129  0.918086  4.898435
  S     1.921162  4.814753  4.718824
