16  
    
  C     2.526246  1.217379  3.372303
  C     2.825462  5.060815  3.780192
  C     1.466569  0.629194  2.627046
  C     1.567007  4.641196  3.216864
  N     3.584726  1.372686  2.573262
  N     3.747702  5.212860  2.809118
  N     1.690142  0.282592  1.373428
  N     1.589495  4.233873  1.942654
  N     0.571150  0.876385  5.067264
  N     1.158121  4.928519  5.674816
  S     0.025794  0.528333  3.491112
  S     0.350161  4.363368  4.368080
  S     3.225096  0.812296  1.093482
  S     3.097935  4.586271  1.448534
  S     2.142788  1.380566  5.090360
  S     2.606633  5.661349  5.420457
