16  
    
  C    -0.529861 -0.477047  2.669370
  C    -0.290481  3.274345  2.668454
  C    -1.737641 -0.659691  1.967823
  C    -1.477537  2.631849  2.046522
  N     0.499558 -0.363056  1.818866
  N     0.730562  3.490109  1.855779
  N    -1.617357 -0.847253  0.656685
  N    -1.329340  2.388997  0.756432
  N    -2.357466 -0.616681  4.476240
  N    -2.175407  3.153054  4.433604
  S    -3.038036 -1.012450  3.011018
  S    -2.759118  2.348062  3.125104
  S    -0.073052 -0.562595  0.284581
  S     0.231672  2.752556  0.387337
  S    -0.747369 -0.063854  4.376826
  S    -0.684524  3.773204  4.356068
