16  
    
  C    -0.025434 -0.608187  2.586165
  C    -0.302711  3.147675  2.633157
  C    -1.259803 -1.282386  2.097840
  C    -1.503655  2.685255  2.048845
  N     0.956767 -0.576790  1.651599
  N     0.610087  3.476767  1.734512
  N    -1.144926 -1.517078  0.786829
  N    -1.516822  2.462342  0.725733
  N    -1.744013 -0.677604  4.526390
  N    -1.934309  2.900616  4.619259
  S    -2.631846 -1.151240  3.165134
  S    -2.799530  2.509250  3.223572
  S     0.295127 -1.087727  0.216841
  S     0.029509  2.911914  0.246410
  S    -0.151742 -0.346900  4.300480
  S    -0.309004  3.307759  4.403491
