16  
    
  C     1.702503  0.731782  3.281708
  C     1.996772  4.632641  3.263514
  C     0.626969  0.192280  2.501948
  C     0.872366  3.949476  2.729714
  N     2.767475  1.050093  2.529393
  N     3.021780  4.868051  2.411283
  N     0.863004  0.089712  1.203215
  N     0.878209  4.049631  1.382835
  N    -0.192205  0.274640  4.861290
  N     0.364514  4.062578  5.225175
  S    -0.748406 -0.348282  3.389463
  S    -0.461484  3.662550  3.773960
  S     2.428346  0.662172  0.933004
  S     2.417359  4.464577  0.911328
  S     1.398304  0.688640  5.029047
  S     1.903140  4.746101  5.017979
