16  
    
  C    -0.074005 -0.412767  2.414976
  C    -0.366019  3.439756  2.610079
  C    -1.211310 -0.950012  1.822383
  C    -1.682727  3.051661  2.055731
  N     0.997000 -0.261556  1.650553
  N     0.652236  3.387648  1.746566
  N    -1.177886 -0.984936  0.507143
  N    -1.624728  3.045172  0.709717
  N    -1.901684 -0.605753  4.281296
  N    -2.020456  3.218278  4.573821
  S    -2.555618 -1.293730  2.923113
  S    -2.921933  2.912414  3.201042
  S     0.419052 -0.591745  0.073837
  S    -0.054567  3.225478  0.235014
  S    -0.354470  0.018330  4.072642
  S    -0.403842  3.613339  4.348984
