16  
    
  C    -2.853673 -1.999165  2.009300
  C    -2.861784  2.452643  1.925401
  C    -4.015585 -2.239225  1.191776
  C    -4.042288  2.097863  1.207984
  N    -1.768060 -1.717634  1.297373
  N    -1.735960  2.499614  1.224303
  N    -3.813784 -2.277877 -0.142039
  N    -3.835643  1.940180 -0.101364
  N    -4.767300 -2.064763  3.713200
  N    -4.621585  1.883091  3.696130
  S    -5.418435 -2.396995  2.284327
  S    -5.373442  1.572695  2.258876
  S    -2.188317 -1.938543 -0.301549
  S    -2.224360  2.145050 -0.346236
  S    -3.120962 -1.683523  3.704832
  S    -3.052795  2.368727  3.622344
