16  
    
  C     2.080228  0.820189  3.088646
  C     2.144318  4.401710  3.024111
  C     0.791128  0.669259  2.461702
  C     0.938086  4.017065  2.363700
  N     3.122697  0.569619  2.301193
  N     3.170755  4.701349  2.225941
  N     0.852353  0.411944  1.171138
  N     1.174041  3.573945  1.141717
  N     0.294079  1.085564  4.970534
  N     0.286331  4.460967  4.788124
  S    -0.523491  0.556367  3.569074
  S    -0.407949  3.966902  3.325597
  S     2.423897  0.216420  0.830404
  S     2.751663  4.020311  0.731860
  S     1.960744  1.131706  4.778801
  S     1.880703  4.808019  4.750494
