16  
    
  C    -1.440556 -1.103794  2.630807
  C    -1.527016  2.623573  2.314941
  C    -2.539947 -1.632727  1.825324
  C    -2.691004  2.163026  1.592649
  N    -0.297074 -0.926054  1.923005
  N    -0.408863  2.720329  1.630340
  N    -2.283452 -1.547333  0.511550
  N    -2.371365  1.866535  0.353158
  N    -3.352412 -1.716656  4.184302
  N    -3.452404  2.459294  4.030552
  S    -3.948071 -1.957341  2.669335
  S    -4.045308  1.789898  2.622736
  S    -0.691488 -1.189798  0.360446
  S    -0.801021  2.289325  0.071385
  S    -1.885338 -0.969662  4.297849
  S    -1.882797  3.045186  4.008617
