16  
    
  C     3.751780  2.035725  3.681659
  C     3.556499  5.231884  3.603098
  C     2.637347  1.488568  2.985008
  C     2.272611  5.009331  2.911005
  N     4.804390  2.242522  2.898415
  N     4.540475  5.544978  2.791350
  N     2.873632  1.344695  1.698067
  N     2.410986  4.903591  1.582126
  N     1.800091  1.909568  5.375647
  N     1.819272  5.009520  5.481223
  S     1.152434  1.571951  3.908357
  S     0.943675  4.788216  4.022952
  S     4.382603  1.899475  1.342494
  S     3.994712  5.358986  1.262618
  S     3.413962  2.256353  5.390977
  S     3.443766  5.426756  5.286120
