16  
    
  C     2.604824  1.064453  3.157919
  C     2.455237  4.989126  3.506837
  C     1.382306  0.683623  2.478633
  C     1.323957  4.414866  2.802363
  N     3.597067  1.322955  2.325599
  N     3.565434  4.950281  2.765825
  N     1.514092  0.590608  1.155243
  N     1.490688  4.387616  1.495701
  N     0.767141  0.686020  4.955704
  N     0.624542  4.509714  5.270301
  S     0.038131  0.391173  3.523167
  S     0.007614  3.922788  3.773176
  S     3.057007  0.988029  0.829863
  S     3.071952  4.693266  1.229537
  S     2.407430  1.030733  4.885701
  S     2.195925  5.031355  5.207964
