16  
    
  C    -0.112024 -0.219711  2.478728
  C    -0.372182  3.463314  2.513675
  C    -1.252317 -0.768280  1.853758
  C    -1.662538  2.941622  1.979448
  N     0.950572  0.100542  1.716829
  N     0.585827  3.452360  1.585665
  N    -1.058238 -1.122096  0.571526
  N    -1.616311  2.701421  0.678699
  N    -2.015973 -0.653436  4.296412
  N    -1.973910  3.156279  4.477247
  S    -2.707183 -1.135575  2.808579
  S    -2.908642  2.988911  3.137496
  S     0.512190 -0.594724  0.206311
  S    -0.090386  3.127959  0.122194
  S    -0.460311 -0.051678  4.203966
  S    -0.372033  3.377901  4.285107
