16  
    
  C    -0.179384 -0.503710  2.675040
  C     0.058865  3.305658  2.499396
  C    -1.344113 -0.884741  1.891902
  C    -1.144159  2.913371  1.775054
  N     0.875970 -0.169911  1.936631
  N     1.143018  3.578617  1.752779
  N    -1.089749 -1.008265  0.586178
  N    -0.946588  2.739824  0.466200
  N    -2.081082 -0.845716  4.406547
  N    -1.773260  2.973196  4.266736
  S    -2.607890 -1.409860  2.966483
  S    -2.400997  2.303008  2.878009
  S     0.502721 -0.530122  0.320645
  S     0.593075  3.289708  0.179857
  S    -0.462938 -0.363535  4.388529
  S    -0.196474  3.505301  4.153738
