16  
    
  C     1.400403  0.911268  3.289761
  C     1.253001  4.372146  3.105467
  C     0.127072  0.418281  2.801615
  C    -0.034617  4.066584  2.414827
  N     2.412307  0.927764  2.363034
  N     2.263381  4.608877  2.278747
  N     0.164360 -0.053622  1.553490
  N     0.035170  3.935489  1.106619
  N    -0.265687  0.944596  5.320688
  N    -0.582655  4.167106  4.869878
  S    -1.200782  0.403259  3.960032
  S    -1.378171  3.659933  3.494312
  S     1.683908  0.217427  0.955272
  S     1.577118  4.432911  0.714309
  S     1.352640  1.189880  5.041986
  S     1.028259  4.488442  4.854797
