16  
    
  C    -1.379247 -0.422850  2.016387
  C    -1.222212  3.354381  2.158086
  C    -2.576297 -0.990917  1.502050
  C    -2.464879  2.717027  1.665770
  N    -0.482382 -0.170642  1.070159
  N    -0.268100  3.473828  1.256118
  N    -2.552029 -1.459420  0.278982
  N    -2.455592  2.589290  0.344877
  N    -2.848796 -0.708619  4.024349
  N    -2.711863  2.935833  4.253094
  S    -3.789311 -1.186946  2.765042
  S    -3.662728  2.617031  2.907100
  S    -1.024816 -0.918459 -0.333722
  S    -0.959937  3.058268 -0.199033
  S    -1.342656 -0.163956  3.699925
  S    -1.121526  3.309964  3.878578
