16  
    
  C    -1.296865 -0.756975  1.902531
  C    -1.397836  3.412892  2.029314
  C    -2.600380 -1.213886  1.489860
  C    -2.544691  2.721903  1.440380
  N    -0.471743 -0.530082  0.864775
  N    -0.420119  3.707063  1.197853
  N    -2.705009 -1.562614  0.181258
  N    -2.359402  2.520119  0.151630
  N    -2.700699 -1.051630  4.050296
  N    -3.003592  2.816904  3.976166
  S    -3.691921 -1.479984  2.809579
  S    -3.704567  2.207697  2.585254
  S    -1.222675 -1.091702 -0.530323
  S    -0.928617  3.189665 -0.294717
  S    -1.219139 -0.398693  3.595596
  S    -1.529979  3.590175  3.760202
