16  
    
  C     2.199066  0.934382  3.396451
  C     2.081999  4.606127  2.941294
  C     0.946194  0.567870  2.782230
  C     0.806815  4.319012  2.326116
  N     3.227640  1.125358  2.575951
  N     3.146945  4.821978  2.145797
  N     1.019291  0.351738  1.474758
  N     0.946554  4.071296  1.002748
  N     0.601302  0.922122  5.263262
  N     0.300120  4.408260  4.910619
  S    -0.325969  0.645457  3.928748
  S    -0.431153  3.872659  3.439321
  S     2.621175  0.739032  1.072651
  S     2.484795  4.474655  0.662670
  S     2.182667  1.027597  5.110744
  S     1.916304  4.864259  4.633225
