16  
    
  C    -1.466405 -1.004841  2.489755
  C    -1.465945  2.574206  2.277800
  C    -2.480968 -1.577553  1.709424
  C    -2.568786  1.976154  1.578024
  N    -0.329137 -0.768767  1.825764
  N    -0.473292  2.996215  1.470088
  N    -2.180965 -1.655929  0.392294
  N    -2.290589  1.699317  0.298706
  N    -3.447280 -1.451440  4.152688
  N    -3.411842  2.459345  3.923717
  S    -3.997323 -1.922402  2.633519
  S    -3.926977  1.731094  2.544823
  S    -0.645301 -1.061974  0.230357
  S    -0.805686  2.337869 -0.029723
  S    -1.823948 -1.022858  4.192217
  S    -1.861516  3.021613  3.919091
