16  
    
  C     1.168390  0.142397  3.049313
  C     0.610998  3.799971  3.195514
  C    -0.039553 -0.287674  2.352039
  C    -0.394271  3.097005  2.328679
  N     2.209434  0.293061  2.234038
  N     1.670260  4.207704  2.490787
  N     0.130613 -0.512254  1.067469
  N    -0.281498  3.280353  1.034699
  N    -0.652678  0.063210  4.867504
  N    -1.311380  3.009177  4.779894
  S    -1.368708 -0.351850  3.488533
  S    -1.858505  2.729046  3.250758
  S     1.691871 -0.117062  0.683542
  S     1.297947  3.848083  0.838020
  S     0.913303  0.559987  4.710027
  S     0.196726  3.731455  4.874474
