16  
    
  C     2.009901  1.041308  3.169807
  C     2.156671  4.420259  2.963848
  C     0.785816  0.693512  2.518092
  C     0.969290  3.918145  2.269483
  N     3.058598  1.133499  2.388840
  N     3.253788  4.547948  2.226997
  N     0.853095  0.602565  1.206009
  N     1.183675  3.586724  1.003198
  N     0.374789  0.879637  5.127513
  N     0.408886  4.213532  4.754911
  S    -0.482716  0.438940  3.651205
  S    -0.427806  3.899833  3.354099
  S     2.531305  0.829725  0.840513
  S     2.770617  4.138381  0.674243
  S     1.929344  1.440734  4.824499
  S     1.993804  4.558864  4.704745
