16  
    
  C    -1.775547 -1.045873  2.497619
  C    -1.864076  2.380876  2.520499
  C    -3.008578 -1.529255  1.853180
  C    -3.174443  2.233258  1.832825
  N    -0.713781 -0.950752  1.688781
  N    -0.825517  2.577757  1.703237
  N    -2.946004 -1.529926  0.524143
  N    -3.029128  2.099661  0.527982
  N    -3.588765 -1.291199  4.318953
  N    -3.665083  2.191617  4.365910
  S    -4.324935 -1.732280  2.908182
  S    -4.483311  1.969622  2.915978
  S    -1.337659 -1.279290  0.144488
  S    -1.402349  2.460374  0.172545
  S    -1.980320 -0.886726  4.254956
  S    -2.026183  2.487395  4.267411
