16  
    
  C    -3.096459 -1.513201  2.257074
  C    -3.309697  1.904959  2.009401
  C    -4.305226 -1.941151  1.624435
  C    -4.599830  1.530861  1.435259
  N    -2.006199 -1.395101  1.467950
  N    -2.364327  2.238403  1.139531
  N    -4.127190 -2.056875  0.317400
  N    -4.478786  1.333480  0.118101
  N    -4.873875 -1.599566  4.131963
  N    -4.943927  1.489243  3.957834
  S    -5.655214 -1.760567  2.704962
  S    -5.788370  1.073030  2.577119
  S    -2.559541 -1.639439 -0.047353
  S    -2.968506  1.786256 -0.321253
  S    -3.230092 -1.459636  3.981194
  S    -3.302654  1.865706  3.737952
