16  
    
  C     1.752527  0.599762  3.031363
  C     1.932391  4.176232  3.355578
  C     0.484894  0.210608  2.450336
  C     0.605753  4.173425  2.688952
  N     2.735250  0.806655  2.139253
  N     2.963930  4.368742  2.507567
  N     0.565752  0.063032  1.137778
  N     0.731151  4.173795  1.333114
  N     0.157044  0.357415  5.025730
  N     0.225428  3.945865  5.210012
  S    -0.804385  0.013943  3.584401
  S    -0.677354  3.748608  3.817014
  S     2.131964  0.468793  0.655576
  S     2.328574  4.362697  0.997529
  S     1.817276  0.467148  4.746790
  S     1.796232  4.266058  5.109497
