16  
    
  C     0.306344  0.142329  2.768546
  C     0.211468  3.646080  2.805048
  C    -0.794368 -0.561954  2.170263
  C    -0.887074  3.058642  2.120002
  N     1.335266  0.325575  1.919951
  N     1.251811  4.001814  2.025003
  N    -0.683987 -0.748389  0.853090
  N    -0.699930  2.930798  0.832048
  N    -1.289550 -0.446057  4.647922
  N    -1.565851  3.003638  4.580143
  S    -2.105071 -0.747910  3.208555
  S    -2.318122  2.714321  3.101673
  S     0.831761 -0.263700  0.466995
  S     0.775608  3.533206  0.485400
  S     0.271909  0.093662  4.513330
  S    -0.046185  3.621848  4.534854
