16  
    
  C    -3.091996 -1.660888  1.853680
  C    -3.531306  1.580579  2.121330
  C    -4.234460 -2.367662  1.351676
  C    -4.692589  1.165106  1.371800
  N    -2.139033 -1.555374  0.952027
  N    -2.411307  1.611138  1.396207
  N    -4.210262 -2.636391  0.030768
  N    -4.464608  0.783576  0.099032
  N    -4.677774 -2.051106  3.858960
  N    -5.381560  1.400423  3.871139
  S    -5.558510 -2.540637  2.511692
  S    -6.148101  1.088338  2.376915
  S    -2.695440 -2.178338 -0.439370
  S    -2.859593  1.143731 -0.154690
  S    -3.149756 -1.485900  3.547405
  S    -3.748197  1.908086  3.836950
