16  
    
  C     2.702802  1.362847  3.693396
  C     2.888225  5.316452  3.593919
  C     1.486776  0.926593  2.982475
  C     1.732792  4.838203  2.864356
  N     3.764141  1.563793  2.918125
  N     4.002418  5.422741  2.860500
  N     1.632492  0.754321  1.664903
  N     1.921356  4.906267  1.534243
  N     1.025320  1.087509  5.567995
  N     1.130671  4.692573  5.394914
  S     0.193906  0.749384  4.157739
  S     0.301302  4.789426  3.962858
  S     3.183104  1.206272  1.297259
  S     3.538805  5.191784  1.252740
  S     2.657328  1.527561  5.433776
  S     2.674922  5.333015  5.343789
