16  
    
  C     2.376764  1.220178  3.431409
  C     2.374946  4.769963  3.320300
  C     1.169099  0.779374  2.719641
  C     1.109275  4.463144  2.674169
  N     3.383607  1.615369  2.634068
  N     3.372942  5.126522  2.470977
  N     1.293303  0.718961  1.409853
  N     1.272882  4.260681  1.362291
  N     0.527539  0.609497  5.139090
  N     0.530222  4.222190  5.241331
  S    -0.253315  0.466878  3.714471
  S    -0.161666  3.843136  3.724315
  S     2.790671  1.272454  1.013765
  S     2.795982  4.726951  0.898707
  S     2.130575  0.992961  5.177395
  S     2.203559  4.713866  5.085135
