16  
    
  C    -5.399357 -2.500150  1.366476
  C    -5.459322  1.219092  1.265327
  C    -6.686140 -2.808469  0.766090
  C    -6.558389  0.603791  0.641154
  N    -4.398918 -2.283011  0.536947
  N    -4.399774  1.456969  0.473433
  N    -6.623689 -3.061490 -0.556931
  N    -6.407781  0.528811 -0.682601
  N    -6.965133 -2.940076  3.338813
  N    -7.137710  0.653863  3.112324
  S    -7.816090 -3.218858  1.974041
  S    -7.781220  0.091286  1.737924
  S    -5.029323 -2.602579 -1.002407
  S    -4.887683  1.012820 -1.053764
  S    -5.448825 -2.266859  3.088924
  S    -5.608600  1.169987  3.001627
