16  
    
  C    -5.893403 -3.128320  1.410262
  C    -6.006936  0.914716  1.329714
  C    -7.095194 -3.359415  0.610861
  C    -7.257910  0.496371  0.643716
  N    -4.781240 -2.916050  0.698780
  N    -4.934810  1.113302  0.541506
  N    -6.770645 -3.510161 -0.665873
  N    -7.143262  0.491052 -0.680805
  N    -7.696134 -3.296197  3.120487
  N    -7.745174  0.264025  3.187451
  S    -8.523052 -3.444141  1.636867
  S    -8.609526  0.178630  1.767178
  S    -5.152667 -3.252773 -0.812327
  S    -5.549541  0.808137 -0.999826
  S    -6.090371 -2.940803  3.109023
  S    -6.169300  0.672866  3.073779
