16  
    
  C     1.095206  0.119525  2.938619
  C     0.912305  3.687961  3.072737
  C    -0.174931 -0.410986  2.448308
  C    -0.415534  3.475598  2.535601
  N     2.007458  0.242389  1.965537
  N     1.878564  3.830645  2.114211
  N    -0.176903 -0.751368  1.155175
  N    -0.351010  3.195846  1.221233
  N    -0.372260 -0.055023  4.953058
  N    -0.835891  3.453461  5.017554
  S    -1.361830 -0.548502  3.740640
  S    -1.711165  3.268058  3.651954
  S     1.304213 -0.287827  0.601816
  S     1.131268  3.563799  0.703160
  S     1.208958  0.451228  4.659549
  S     0.801391  3.928172  4.770924
