16  
    
  C    -5.152026 -2.537118  1.846785
  C    -5.412902  1.055346  1.550365
  C    -6.434691 -2.799449  1.234048
  C    -6.648972  0.704505  0.926791
  N    -4.156584 -2.470066  1.007767
  N    -4.399145  1.089861  0.711926
  N    -6.339678 -3.058200 -0.069380
  N    -6.598482  0.678087 -0.397068
  N    -6.941098 -2.077296  3.641706
  N    -7.127907  1.072559  3.467547
  S    -7.725907 -2.757912  2.335144
  S    -7.954374  0.971142  2.023299
  S    -4.785270 -2.804015 -0.473833
  S    -4.992666  0.900183 -0.811541
  S    -5.282332 -2.043079  3.499655
  S    -5.532543  1.368202  3.294645
