16  
    
  C     3.035236  1.429351  3.361992
  C     3.096898  5.093880  3.358845
  C     1.800455  1.146510  2.661891
  C     1.915075  4.770255  2.623977
  N     4.041228  1.582801  2.530111
  N     4.178714  5.114432  2.590611
  N     1.911544  1.040874  1.352868
  N     2.056539  4.493102  1.343533
  N     1.279545  1.589635  5.122244
  N     1.142267  5.050842  5.059128
  S     0.422107  1.206447  3.755317
  S     0.447780  4.643672  3.594398
  S     3.504842  1.434367  0.972064
  S     3.635381  4.849141  0.979098
  S     2.927963  1.657181  5.088377
  S     2.788929  5.258124  5.126465
