16  
    
  C     0.890741  0.220641  2.855196
  C     0.563046  3.625018  2.965194
  C    -0.330195 -0.344384  2.255224
  C    -0.801662  3.549678  2.418161
  N     1.916530  0.357523  1.999006
  N     1.460431  3.980253  2.050512
  N    -0.292341 -0.498280  0.930890
  N    -0.900666  3.742040  1.129108
  N    -0.851927  0.014175  4.821258
  N    -1.147667  3.331741  4.934568
  S    -1.680396 -0.176361  3.401704
  S    -2.091200  3.331444  3.568517
  S     1.273109 -0.052666  0.515859
  S     0.720105  3.869453  0.555301
  S     0.746633  0.339347  4.628394
  S     0.524707  3.407715  4.655459
