16  
    
  C    -1.688558 -1.078209  2.066358
  C    -1.742788  2.425088  1.962160
  C    -2.982883 -1.240811  1.538375
  C    -2.972545  1.970369  1.289468
  N    -0.685344 -0.983216  1.155648
  N    -0.655519  2.487402  1.173274
  N    -2.973725 -1.562377  0.242381
  N    -2.787155  1.826547 -0.023227
  N    -3.434702 -1.031372  4.087520
  N    -3.584202  2.041643  3.745281
  S    -4.262147 -1.179860  2.650195
  S    -4.374613  1.950955  2.312077
  S    -1.406745 -1.390391 -0.263932
  S    -1.221194  2.143436 -0.370599
  S    -1.776590 -0.961066  3.853389
  S    -1.945711  2.362780  3.680915
