16  
    
  C    -2.140785 -0.919052  2.310364
  C    -2.031850  2.291659  1.962363
  C    -3.397098 -1.272594  1.675577
  C    -3.291931  2.018476  1.383371
  N    -1.089610 -0.865607  1.475194
  N    -0.990012  2.428926  1.130644
  N    -3.283229 -1.425807  0.335020
  N    -3.181826  1.733245  0.081893
  N    -3.879044 -1.179718  4.134318
  N    -3.813634  2.376283  3.859421
  S    -4.732368 -1.221105  2.743036
  S    -4.603064  1.845115  2.484631
  S    -1.663085 -1.301822  0.005483
  S    -1.631674  2.124783 -0.339149
  S    -2.295361 -0.648626  4.003056
  S    -2.153135  2.506341  3.717816
