16  
    
  C    -2.191959 -0.869851  2.316118
  C    -2.105462  2.468801  1.962529
  C    -3.398656 -1.207724  1.604024
  C    -3.316487  1.960504  1.409341
  N    -1.117450 -0.778700  1.514958
  N    -1.102480  2.546317  1.112969
  N    -3.215577 -1.627859  0.309396
  N    -3.315292  1.770038  0.086218
  N    -3.888974 -1.211245  4.185795
  N    -3.828411  2.353984  3.884964
  S    -4.758296 -1.253536  2.743485
  S    -4.681061  1.931750  2.530088
  S    -1.579574 -1.329753 -0.007170
  S    -1.756303  2.063210 -0.378802
  S    -2.310492 -0.713901  4.020303
  S    -2.204393  2.554198  3.667292
