16  
    
  C    -4.789444 -2.526644  1.892010
  C    -5.225208  1.246828  1.802101
  C    -5.984942 -3.052464  1.261591
  C    -6.341469  0.558327  1.153636
  N    -3.808794 -2.210260  1.042888
  N    -4.156798  1.338654  1.012737
  N    -5.882369 -3.168872 -0.077311
  N    -6.221436  0.200534 -0.148358
  N    -6.658998 -2.863272  3.805376
  N    -7.010660  1.006258  3.663288
  S    -7.360521 -3.246969  2.322552
  S    -7.680283  0.389914  2.189445
  S    -4.332996 -2.648485 -0.482912
  S    -4.639905  0.703008 -0.483042
  S    -5.107915 -2.273803  3.590056
  S    -5.352720  1.363208  3.533718
