16  
    
  C    -4.730099 -2.431630  1.728617
  C    -4.833386  1.149741  1.660189
  C    -5.989094 -2.843677  1.159276
  C    -5.895203  0.387331  1.050193
  N    -3.776415 -2.189491  0.804820
  N    -3.795531  1.378982  0.795078
  N    -5.949763 -3.098986 -0.146366
  N    -5.738270  0.307369 -0.279116
  N    -6.380525 -2.654506  3.694911
  N    -6.758657  0.885287  3.461620
  S    -7.199316 -3.148875  2.332252
  S    -7.336811  0.118713  2.099160
  S    -4.453234 -2.586217 -0.677901
  S    -4.291411  0.869304 -0.687184
  S    -4.795383 -2.153643  3.462395
  S    -5.141940  1.426289  3.333214
