16  
    
  C    -0.329017 -0.139633  2.542965
  C    -0.372907  3.263856  2.519010
  C    -1.436466 -0.849896  1.795956
  C    -1.578395  2.745676  2.008510
  N     0.766572  0.000082  1.834605
  N     0.606203  3.452629  1.637893
  N    -1.217075 -1.088178  0.522984
  N    -1.573153  2.679091  0.675413
  N    -2.143474 -0.604328  4.297562
  N    -2.060235  3.205225  4.513041
  S    -2.800071 -0.999494  2.802634
  S    -2.900667  2.824169  3.100238
  S     0.406725 -0.545038  0.282617
  S    -0.004430  2.995536  0.174271
  S    -0.568109 -0.094857  4.297338
  S    -0.436025  3.503370  4.259169
