16  
    
  C     1.762790  0.501937  3.202865
  C     1.979963  4.528985  3.268671
  C     0.618776  0.127671  2.437747
  C     0.773467  4.087766  2.629849
  N     2.868694  0.820888  2.473787
  N     2.960763  4.932090  2.470707
  N     0.815339  0.240653  1.119969
  N     0.939773  3.902527  1.316923
  N    -0.077160  0.064238  4.969454
  N     0.327621  4.007384  5.190865
  S    -0.736407 -0.299204  3.452949
  S    -0.447266  3.700536  3.830472
  S     2.378743  0.699854  0.900541
  S     2.369554  4.580500  0.971342
  S     1.428939  0.617549  4.885049
  S     1.902604  4.519070  5.068984
