16  
    
  C     1.493700  1.038561  3.212622
  C     1.898564  4.516738  3.368049
  C     0.316948  0.593001  2.505278
  C     0.623947  4.158514  2.787264
  N     2.580769  1.175459  2.427367
  N     2.844931  4.709287  2.484108
  N     0.437415  0.446479  1.174865
  N     0.716955  3.670692  1.556492
  N    -0.321432  0.772901  5.034664
  N     0.109030  4.552315  5.193300
  S    -0.972572  0.146998  3.637435
  S    -0.786916  4.218310  3.859110
  S     2.077183  0.756820  0.862445
  S     2.305734  4.058540  0.976135
  S     1.312247  1.246732  4.977378
  S     1.721939  4.855809  5.037190
