16  
    
  C    -4.612171 -2.151739  1.503216
  C    -4.417572  1.318454  1.987921
  C    -5.676040 -2.721161  0.735120
  C    -5.611398  0.816230  1.319610
  N    -3.548936 -1.794045  0.772770
  N    -3.579268  1.789737  1.087144
  N    -5.428315 -2.808471 -0.543568
  N    -5.578593  0.699270  0.012657
  N    -6.434204 -2.936740  3.196624
  N    -5.949832  0.863519  3.805511
  S    -7.034253 -3.308903  1.747531
  S    -6.770038  0.378761  2.492684
  S    -3.954312 -2.168348 -0.833916
  S    -4.140382  1.443587 -0.418294
  S    -4.894174 -2.444881  3.184280
  S    -4.406412  1.470715  3.663169
