16  
    
  C    -3.894563 -2.287224  1.643576
  C    -3.410560  1.769934  1.623481
  C    -5.149383 -2.438697  0.974380
  C    -4.610654  1.199516  0.973785
  N    -2.877340 -2.174711  0.815954
  N    -2.495609  2.036632  0.737686
  N    -5.126323 -2.232877 -0.317480
  N    -4.561838  1.021081 -0.347181
  N    -5.587246 -2.374382  3.478921
  N    -5.136341  1.581834  3.500022
  S    -6.407908 -2.750802  2.100416
  S    -5.908958  0.958313  2.181026
  S    -3.501687 -2.024137 -0.671780
  S    -3.044389  1.640805 -0.802139
  S    -3.930391 -2.581836  3.326291
  S    -3.623372  2.164571  3.291766
