16  
    
  C    -1.698882 -1.052932  2.617485
  C    -1.805373  2.481065  2.450583
  C    -2.870922 -1.486260  1.933533
  C    -3.074331  2.390925  1.734082
  N    -0.574927 -1.002628  1.877823
  N    -0.770123  2.603143  1.633805
  N    -2.758203 -1.542393  0.583164
  N    -2.994873  2.227922  0.425765
  N    -3.460576 -1.541735  4.390540
  N    -3.612040  2.370138  4.293644
  S    -4.299546 -1.806884  2.952069
  S    -4.359294  2.034068  2.842794
  S    -1.143458 -1.247385  0.302301
  S    -1.334092  2.381471  0.089815
  S    -1.904463 -0.952720  4.293348
  S    -1.987845  2.553341  4.187115
