16  
    
  C    -1.905133 -1.201412  2.157243
  C    -2.460916  2.451910  1.973111
  C    -3.182694 -1.532202  1.481436
  C    -3.672697  1.996386  1.414219
  N    -0.896018 -0.917399  1.359308
  N    -1.430988  2.513129  1.119698
  N    -2.997156 -1.764878  0.210894
  N    -3.679773  1.884261  0.081069
  N    -3.791473 -1.177607  3.993425
  N    -4.086140  2.422668  3.981319
  S    -4.465336 -1.868724  2.620382
  S    -4.951028  2.015098  2.599482
  S    -1.454161 -1.233179 -0.189764
  S    -2.099000  2.179976 -0.408021
  S    -2.169797 -0.834130  3.836612
  S    -2.495753  2.939083  3.653680
