16  
    
  C     1.010814  0.194616  2.989532
  C     1.006735  4.137305  2.652614
  C    -0.254481 -0.069496  2.422258
  C    -0.168905  3.345295  2.201793
  N     2.033912  0.238664  2.137053
  N     1.941153  4.130283  1.769651
  N    -0.218394 -0.099763  1.076277
  N    -0.067554  2.834930  0.989895
  N    -0.732712 -0.177028  4.963591
  N    -0.741925  4.344435  4.528128
  S    -1.625187 -0.222155  3.500656
  S    -1.462687  3.422298  3.379476
  S     1.399209  0.035638  0.595594
  S     1.456987  3.321543  0.402139
  S     0.937937  0.196148  4.752762
  S     0.878075  4.777703  4.269926
