16  
    
  C     0.774095  0.289324  2.891568
  C     0.589082  3.740241  2.724665
  C    -0.423024 -0.173272  2.346732
  C    -0.641091  3.358386  2.142541
  N     1.740167  0.585097  1.979685
  N     1.593066  3.848467  1.837258
  N    -0.404966 -0.507309  1.052607
  N    -0.613776  3.251231  0.813538
  N    -0.939300  0.171153  4.885309
  N    -0.969872  3.361121  4.722581
  S    -1.767797 -0.217038  3.537455
  S    -1.881814  3.192507  3.388506
  S     1.107904  0.053387  0.523251
  S     0.900308  3.745673  0.386209
  S     0.617121  0.553689  4.603064
  S     0.691889  3.535857  4.475398
