16  
    
  C    -4.198628 -1.979686  1.881937
  C    -4.180822  1.379417  1.790787
  C    -5.529948 -2.270247  1.403384
  C    -5.385800  1.250066  1.064621
  N    -3.240620 -2.055385  0.941441
  N    -3.087976  1.330736  1.005997
  N    -5.607358 -2.486124  0.113209
  N    -5.257497  1.124712 -0.252049
  N    -5.684461 -2.263633  3.931643
  N    -6.064943  1.558108  3.548718
  S    -6.670226 -2.280912  2.636824
  S    -6.830898  1.256637  2.120272
  S    -4.029607 -2.416695 -0.432677
  S    -3.576460  1.151952 -0.533105
  S    -4.057674 -2.049544  3.646651
  S    -4.467507  1.523878  3.512053
