16  
    
  C    -3.796485 -2.460000  1.608387
  C    -3.342772  1.684958  1.604807
  C    -5.089946 -2.348082  0.967603
  C    -4.555761  1.078358  1.020459
  N    -2.782767 -2.279380  0.804228
  N    -2.361465  1.950865  0.759483
  N    -5.072722 -2.125674 -0.351452
  N    -4.482004  0.916228 -0.281328
  N    -5.572368 -2.595911  3.512389
  N    -5.089563  1.485506  3.499764
  S    -6.450172 -2.749550  2.079696
  S    -5.893759  0.948837  2.101002
  S    -3.465487 -2.057267 -0.742952
  S    -3.022020  1.488358 -0.748028
  S    -3.923903 -2.595007  3.346997
  S    -3.560709  2.181725  3.199973
