16  
    
  C     1.481732  0.911024  3.416052
  C     1.312144  4.629354  3.258079
  C     0.230746  0.556108  2.828026
  C     0.062967  4.157976  2.777205
  N     2.519543  0.838038  2.581901
  N     2.199601  4.869254  2.313163
  N     0.250568  0.207763  1.566554
  N    -0.084129  3.960594  1.442613
  N    -0.299724  0.917541  5.400840
  N    -0.160050  4.311643  5.397316
  S    -1.052791  0.441536  4.001657
  S    -1.098070  4.076750  4.103024
  S     1.830287  0.342055  1.114109
  S     1.431191  4.298520  0.911480
  S     1.350763  1.258702  5.095660
  S     1.444858  4.652543  5.030179
