16  
    
  C     0.677470  0.269611  3.035215
  C     0.770361  3.727539  2.824160
  C    -0.638397 -0.006700  2.388408
  C    -0.532663  3.352947  2.274504
  N     1.666339  0.412515  2.153745
  N     1.690995  4.037140  1.902889
  N    -0.570674 -0.297160  1.097044
  N    -0.510315  3.327403  0.975815
  N    -1.028556  0.282640  4.897795
  N    -1.016310  3.568717  4.747691
  S    -1.904226 -0.046353  3.514074
  S    -1.873464  3.234571  3.423667
  S     1.031949  0.000445  0.696275
  S     1.001455  3.681945  0.449102
  S     0.639499  0.483650  4.757296
  S     0.648729  3.875857  4.565132
