16  
    
  C     2.051802  0.598744  3.228530
  C     2.036284  4.321349  3.082213
  C     0.768922  0.283098  2.682640
  C     0.788131  3.969371  2.481418
  N     3.020295  0.711066  2.306527
  N     3.024271  4.297553  2.212084
  N     0.764084  0.032179  1.346275
  N     0.749859  3.893371  1.178412
  N     0.415937  0.709766  5.211789
  N     0.304583  4.244450  4.957470
  S    -0.510613  0.553968  3.772292
  S    -0.594481  3.968381  3.601749
  S     2.255422  0.346327  0.869519
  S     2.330658  3.903484  0.710183
  S     2.055175  0.847806  4.939860
  S     1.820401  4.728172  4.740099
