16  
    
  C    -2.848487 -1.528934  2.011621
  C    -2.413968  1.967991  2.017150
  C    -4.062604 -2.127017  1.453682
  C    -3.727090  1.935054  1.434853
  N    -1.874951 -1.351812  1.093633
  N    -1.420743  1.942858  1.126555
  N    -4.055875 -2.133671  0.106435
  N    -3.737540  1.629014  0.141623
  N    -4.542425 -2.035516  3.910931
  N    -4.052369  2.210754  3.922431
  S    -5.330210 -2.546354  2.560322
  S    -4.993526  2.115123  2.571409
  S    -2.554131 -1.623341 -0.387326
  S    -2.104209  1.604555 -0.311160
  S    -2.923311 -1.593869  3.742955
  S    -2.425636  2.382262  3.772173
