16  
    
  C    -0.950882 -0.497730  2.464137
  C    -1.076373  3.016982  2.490431
  C    -2.047693 -1.074259  1.763047
  C    -2.339795  2.866120  1.743351
  N     0.134772 -0.239137  1.678728
  N    -0.057194  3.091360  1.638214
  N    -1.935528 -1.208959  0.433596
  N    -2.192343  2.468673  0.465732
  N    -2.678324 -1.155883  4.286035
  N    -2.919439  3.192405  4.271535
  S    -3.433718 -1.522562  2.808600
  S    -3.718079  3.010482  2.815719
  S    -0.340104 -0.705194  0.112854
  S    -0.567702  2.680938  0.135964
  S    -1.123766 -0.602781  4.151074
  S    -1.252386  3.341689  4.147987
