16  
    
  C    -2.204880 -1.078634  2.084568
  C    -2.664041  2.480259  2.313633
  C    -3.276781 -1.840685  1.494497
  C    -3.779711  1.868775  1.683294
  N    -1.275760 -0.648092  1.211330
  N    -1.779281  2.903518  1.438788
  N    -3.188596 -2.012904  0.178849
  N    -3.727978  1.681051  0.387237
  N    -3.996909 -1.602913  3.949535
  N    -4.390602  2.219791  4.173302
  S    -4.518914 -2.350714  2.610495
  S    -5.100621  1.608920  2.794011
  S    -1.849693 -1.161368 -0.313938
  S    -2.296793  2.383795 -0.076802
  S    -2.441445 -1.015474  3.851778
  S    -2.861505  2.886407  4.002118
