16  
    
  C    -2.715315 -1.596372  2.043711
  C    -2.410485  2.117025  2.091304
  C    -4.007490 -1.971105  1.524424
  C    -3.680153  1.880785  1.485556
  N    -1.756144 -1.403112  1.148424
  N    -1.353972  2.086742  1.264279
  N    -4.022260 -2.093579  0.215912
  N    -3.613944  1.819846  0.159349
  N    -4.388824 -1.887828  4.094854
  N    -4.129705  2.178230  3.994260
  S    -5.295856 -2.237070  2.689375
  S    -4.975568  1.979906  2.580702
  S    -2.524320 -1.729871 -0.339396
  S    -2.047721  1.882165 -0.264712
  S    -2.805241 -1.483683  3.827170
  S    -2.446592  2.341192  3.839347
