16  
    
  C     3.176023  1.606701  3.278649
  C     3.059212  5.007364  3.374318
  C     1.899434  1.335784  2.677548
  C     1.862638  4.674609  2.663357
  N     4.163338  1.605693  2.375793
  N     4.158969  5.055030  2.630710
  N     1.961609  1.045744  1.388173
  N     1.989633  4.616792  1.355327
  N     1.412018  1.608398  5.151663
  N     1.269025  5.000593  5.189159
  S     0.515501  1.508992  3.781629
  S     0.475125  4.635332  3.805433
  S     3.587311  1.202510  0.941689
  S     3.681821  4.869209  1.055561
  S     3.041036  1.869525  5.026149
  S     2.891601  5.261015  5.094988
