16  
    
  C     2.415835  0.994923  3.312983
  C     2.360701  4.680182  3.399545
  C     1.224056  0.695623  2.563020
  C     1.189981  4.280983  2.672604
  N     3.496601  1.344201  2.647460
  N     3.352817  5.129366  2.682088
  N     1.365568  0.911056  1.241036
  N     1.460796  4.097749  1.398719
  N     0.602157  0.548710  5.101018
  N     0.618592  4.267612  5.149834
  S    -0.093191  0.395501  3.611708
  S    -0.095748  3.953249  3.711638
  S     2.933011  1.371286  1.055373
  S     2.958880  4.756290  1.115794
  S     2.215376  1.045352  5.032361
  S     2.194775  4.792809  5.090519
