16  
    
  C    -3.689822 -2.453244  1.781554
  C    -3.417557  1.720104  1.796496
  C    -4.864304 -2.894504  1.112747
  C    -4.560800  1.058452  1.151473
  N    -2.623361 -2.345310  0.971186
  N    -2.495246  1.997966  0.869287
  N    -4.743033 -2.916078 -0.197370
  N    -4.341724  0.695421 -0.152315
  N    -5.429155 -2.770769  3.634024
  N    -5.296510  1.517953  3.653166
  S    -6.192961 -3.066885  2.164546
  S    -5.903888  0.767319  2.273149
  S    -3.172860 -2.576207 -0.541628
  S    -2.867922  1.366350 -0.607955
  S    -3.809410 -2.509511  3.544916
  S    -3.707450  2.124525  3.484181
