16  
    
  C     0.741724  0.352327  2.864522
  C     0.648964  3.539940  2.676613
  C    -0.386378 -0.260266  2.293835
  C    -0.673631  3.321927  2.179846
  N     1.740500  0.553614  1.999321
  N     1.641023  3.889750  1.851120
  N    -0.350455 -0.415980  0.972394
  N    -0.697465  3.414007  0.865350
  N    -0.821789  0.080347  4.801003
  N    -1.011572  3.245324  4.712230
  S    -1.712711 -0.379602  3.412889
  S    -1.952422  3.079786  3.334087
  S     1.160196  0.112541  0.503530
  S     0.907105  3.660764  0.313873
  S     0.737218  0.628798  4.594925
  S     0.621107  3.495483  4.407792
