16  
    
  C     2.821923  1.542557  3.530280
  C     2.864125  5.290097  3.363645
  C     1.640781  0.918835  3.015666
  C     1.772946  4.545464  2.741197
  N     3.834174  1.738977  2.694985
  N     3.878748  5.566277  2.518647
  N     1.711070  0.620174  1.723999
  N     1.859783  4.561518  1.393137
  N     1.212416  1.256152  5.529636
  N     1.165523  4.871091  5.280013
  S     0.418813  0.628207  4.233776
  S     0.453787  4.293893  3.941382
  S     3.208545  1.011746  1.238639
  S     3.351124  5.125673  0.984304
  S     2.689244  1.972968  5.126115
  S     2.741094  5.432093  5.051767
