16  
    
  C     2.939723  1.562571  3.397543
  C     2.954299  5.067807  3.245441
  C     1.684601  1.323059  2.704388
  C     1.731419  4.794759  2.569890
  N     4.045098  1.565681  2.649717
  N     4.053962  5.190788  2.503847
  N     1.835308  1.240644  1.375903
  N     1.977200  4.448395  1.291761
  N     1.216770  1.026968  5.207830
  N     1.164829  4.963053  5.039165
  S     0.436123  0.894256  3.763885
  S     0.387008  4.489685  3.627900
  S     3.412919  1.392984  1.019025
  S     3.541410  4.767647  0.972790
  S     2.807690  1.597764  5.184704
  S     2.811594  5.355442  4.945272
