16  
    
  C    -1.474242 -1.093098  2.221388
  C    -1.766916  2.407570  1.951345
  C    -2.744239 -1.192464  1.582133
  C    -3.061464  2.055745  1.388778
  N    -0.428764 -1.125536  1.370764
  N    -0.764630  2.493363  1.099529
  N    -2.718627 -1.584259  0.276876
  N    -3.031039  1.987236  0.082192
  N    -3.195518 -1.078040  4.107895
  N    -3.394211  2.103914  3.950788
  S    -4.061777 -1.202291  2.695330
  S    -4.287514  1.874405  2.575099
  S    -1.110850 -1.503375 -0.131304
  S    -1.423809  2.171069 -0.383884
  S    -1.510708 -0.876551  3.964204
  S    -1.807708  2.602839  3.716185
