16  
    
  C     1.083627  0.086070  2.930520
  C     0.916741  3.722788  2.986768
  C    -0.186061 -0.453094  2.491490
  C    -0.359845  3.350314  2.461816
  N     1.995644  0.205141  1.979173
  N     1.898387  3.854401  2.155565
  N    -0.231811 -0.632088  1.150409
  N    -0.432060  3.217029  1.144034
  N    -0.423899 -0.099114  5.104422
  N    -0.700167  3.640356  5.007041
  S    -1.318418 -0.518550  3.738952
  S    -1.663174  3.324588  3.641251
  S     1.253218 -0.231392  0.533298
  S     1.149127  3.453157  0.631188
  S     1.128915  0.352331  4.636218
  S     0.837622  4.080258  4.694780
