16  
    
  C     2.751852  1.379774  3.673496
  C     2.924002  5.293527  3.627221
  C     1.535764  1.014388  3.015766
  C     1.704376  5.021841  2.887188
  N     3.755816  1.520131  2.822107
  N     3.992103  5.345622  2.857543
  N     1.602182  0.835803  1.695159
  N     1.860803  4.801143  1.584589
  N     1.004869  0.914615  5.573282
  N     1.158246  4.710944  5.350785
  S     0.225634  0.744906  4.109472
  S     0.343856  4.858400  3.934270
  S     3.221856  1.213910  1.300605
  S     3.490565  5.152422  1.309542
  S     2.567169  1.471234  5.456677
  S     2.689253  5.307051  5.362596
