16  
    
  C     2.391146  1.047609  3.251648
  C     2.926664  5.485069  3.892474
  C     1.241326  0.567896  2.573351
  C     1.723533  4.902263  3.334078
  N     3.460160  1.176123  2.476584
  N     4.022540  5.309681  3.135989
  N     1.458937  0.340345  1.281532
  N     1.826200  4.601495  2.010505
  N     0.572068  1.195223  4.944927
  N     1.126717  5.830585  5.746965
  S    -0.095372  0.392158  3.638604
  S     0.398186  4.962441  4.484386
  S     3.045499  0.764918  1.013322
  S     3.422306  4.857322  1.646020
  S     2.165820  1.311336  4.929432
  S     2.813730  5.909137  5.598566
