16  
    
  C     3.163443  1.528825  3.325456
  C     3.120210  4.854984  3.413392
  C     1.889947  1.188128  2.707546
  C     1.892971  4.703073  2.693850
  N     4.191606  1.653036  2.501761
  N     4.160360  5.155821  2.643941
  N     1.956753  1.010011  1.385302
  N     2.057459  4.604597  1.373043
  N     1.304919  1.653830  5.194598
  N     1.210633  5.013153  5.145546
  S     0.532964  1.433994  3.733202
  S     0.494173  4.670795  3.677461
  S     3.489690  1.274355  0.915914
  S     3.625561  4.870917  1.085130
  S     2.966726  1.777367  5.006053
  S     2.854744  5.274112  5.047344
