16  
    
  C    -2.571142 -1.280859  2.222117
  C    -2.605243  2.442533  2.297166
  C    -3.807616 -1.674290  1.541406
  C    -3.698103  1.756148  1.685971
  N    -1.613775 -1.067142  1.352329
  N    -1.603138  2.877007  1.504127
  N    -3.724915 -1.894317  0.259454
  N    -3.612205  1.807114  0.363282
  N    -4.388438 -1.699138  4.033478
  N    -4.390005  2.011156  4.187797
  S    -5.097874 -2.012396  2.551989
  S    -5.057189  1.475343  2.741948
  S    -2.155848 -1.479048 -0.142777
  S    -2.195981  2.567480 -0.059329
  S    -2.783778 -1.136452  3.940268
  S    -2.783810  2.492847  4.067476
