16  
    
  C     1.034726  0.275446  2.994603
  C     0.588190  3.651547  2.967745
  C    -0.107842 -0.088412  2.224888
  C    -0.549109  3.112350  2.165992
  N     2.119922  0.507782  2.270851
  N     1.528380  4.272573  2.231171
  N     0.053893 -0.126016  0.927739
  N    -0.209574  2.932806  0.917232
  N    -0.829840 -0.187671  4.766166
  N    -1.482933  3.166406  4.511922
  S    -1.529765 -0.326673  3.288705
  S    -1.931749  2.552514  3.048237
  S     1.686562  0.287555  0.638960
  S     1.297415  3.673032  0.649983
  S     0.842204  0.233820  4.787775
  S     0.046945  3.755945  4.612464
