16  
    
  C     2.835376  1.528014  3.544097
  C     2.985852  5.143309  3.416813
  C     1.625740  0.894091  3.072506
  C     1.736625  4.756247  2.803334
  N     3.766615  1.646273  2.596330
  N     3.904646  5.629655  2.561484
  N     1.656100  0.549020  1.781201
  N     1.839398  4.635641  1.479692
  N     1.119983  1.412010  5.509926
  N     1.092547  5.086000  5.267274
  S     0.390183  0.641605  4.211583
  S     0.425160  4.337140  3.884776
  S     3.160735  1.039888  1.211704
  S     3.391804  5.200317  1.035635
  S     2.691919  1.879299  5.348342
  S     2.708067  5.376931  5.198570
