16  
    
  C     0.843517  0.330360  3.008690
  C     0.567765  3.717849  2.938886
  C    -0.426516  0.088843  2.287683
  C    -0.792989  3.492136  2.409916
  N     1.891029  0.416102  2.167422
  N     1.541158  3.844634  2.042804
  N    -0.260130 -0.199240  0.996126
  N    -0.773004  3.441119  1.101761
  N    -0.955318  0.280681  4.892639
  N    -1.129215  3.637331  4.921354
  S    -1.716108 -0.054195  3.456908
  S    -2.030948  3.288721  3.620484
  S     1.337772  0.037374  0.648196
  S     0.799862  3.480438  0.559038
  S     0.650841  0.724952  4.721395
  S     0.512815  3.990025  4.657789
