16  
    
  C    -3.533138 -2.527481  1.884041
  C    -3.673041  1.922700  1.849224
  C    -4.681538 -3.062904  1.203771
  C    -4.635200  1.024703  1.232189
  N    -2.423349 -2.394473  1.166946
  N    -2.719387  2.264407  1.019536
  N    -4.537027 -3.166683 -0.144146
  N    -4.386708  0.667063 -0.019448
  N    -5.468973 -2.542002  3.660336
  N    -5.382911  1.477303  3.676695
  S    -6.017023 -3.344696  2.334152
  S    -5.963796  0.587493  2.363868
  S    -2.934719 -2.725449 -0.413074
  S    -2.983947  1.471804 -0.445941
  S    -3.827194 -2.202355  3.586868
  S    -3.912065  2.259244  3.559353
