16  
    
  C     1.915230  0.597949  3.161814
  C     1.839592  4.142847  3.158868
  C     0.600293  0.394418  2.638818
  C     0.566959  4.024757  2.564392
  N     2.908684  0.554415  2.295616
  N     2.852223  4.311815  2.324837
  N     0.556361  0.280447  1.303417
  N     0.589339  3.856936  1.261422
  N     0.317292  0.602656  5.210289
  N     0.192635  4.301404  5.012250
  S    -0.549889  0.167975  3.862710
  S    -0.691775  4.035305  3.721229
  S     2.207773  0.310508  0.823425
  S     2.258622  4.030636  0.787858
  S     2.002141  0.774951  4.834496
  S     1.820036  4.334955  4.845474
