16  
    
  C     1.470955  1.071769  3.204151
  C     1.804171  4.500375  3.352856
  C     0.257963  0.608463  2.526231
  C     0.522798  4.115584  2.804113
  N     2.496425  1.178671  2.398175
  N     2.789484  4.663129  2.448877
  N     0.437990  0.438558  1.224834
  N     0.644822  3.768664  1.552908
  N    -0.307763  0.906418  5.121086
  N     0.035820  4.553805  5.254750
  S    -1.015508  0.199753  3.644390
  S    -0.821516  4.281705  3.914200
  S     2.051197  0.767318  0.842580
  S     2.238443  4.015896  1.038784
  S     1.335779  1.240694  4.956329
  S     1.694666  4.855491  5.057926
