16  
    
  C    -1.325329 -0.899011  2.055299
  C    -1.506120  3.317436  1.986735
  C    -2.585760 -1.388380  1.477277
  C    -2.537053  2.546363  1.388003
  N    -0.440761 -0.525508  1.106269
  N    -0.571205  3.707091  1.160126
  N    -2.516352 -1.613096  0.138677
  N    -2.298541  2.231348  0.134953
  N    -2.909860 -1.082393  4.053731
  N    -3.176757  2.726768  3.873332
  S    -3.751079 -1.531846  2.680096
  S    -3.861759  2.125111  2.483309
  S    -1.010259 -1.013419 -0.358554
  S    -0.947035  3.039838 -0.316194
  S    -1.285545 -0.656450  3.768554
  S    -1.691599  3.430390  3.688404
