16  
    
  C    -5.810150 -2.919370  1.269656
  C    -5.867965  0.825250  1.555100
  C    -6.911772 -3.683634  0.688489
  C    -7.026876  0.148536  0.977449
  N    -4.869494 -2.543420  0.427406
  N    -4.890381  1.215815  0.708464
  N    -6.798013 -3.827534 -0.640262
  N    -6.943013  0.049903 -0.341409
  N    -7.429920 -3.172635  3.219962
  N    -7.581917  0.416163  3.435787
  S    -8.218076 -3.929528  1.931814
  S    -8.326547 -0.113432  2.071027
  S    -5.365968 -3.015757 -1.079025
  S    -5.516566  0.825561 -0.827565
  S    -5.776509 -2.844885  3.007313
  S    -6.027222  1.075324  3.263309
