16  
    
  C    -4.474469 -2.425761  1.498487
  C    -4.344918  1.445348  1.933594
  C    -5.526138 -3.007775  0.736196
  C    -5.634748  0.971409  1.413383
  N    -3.407678 -2.050473  0.798982
  N    -3.430241  1.813955  1.044552
  N    -5.319817 -2.985482 -0.548877
  N    -5.588942  0.790943  0.113297
  N    -6.265806 -2.981957  3.172814
  N    -5.908637  0.959577  3.894122
  S    -6.970937 -3.243373  1.726298
  S    -6.778785  0.574480  2.579506
  S    -3.836404 -2.275161 -0.775755
  S    -4.083311  1.360667 -0.443877
  S    -4.727227 -2.359442  3.207729
  S    -4.463295  1.642765  3.640543
