16  
    
  C     3.659114  2.155717  3.603843
  C     3.496609  5.338338  3.589176
  C     2.498229  1.618794  2.904767
  C     2.237681  4.996550  2.948934
  N     4.715163  2.373643  2.854741
  N     4.466328  5.537884  2.669926
  N     2.716609  1.292128  1.634985
  N     2.258586  4.851040  1.626126
  N     1.779469  1.954314  5.402039
  N     1.744358  4.893887  5.477118
  S     1.128604  1.392561  3.921747
  S     0.950157  4.627983  4.015382
  S     4.332933  1.748847  1.358527
  S     3.825313  5.215727  1.200049
  S     3.442675  2.192300  5.341331
  S     3.291998  5.366682  5.313908
