16  
    
  C     1.308348  0.868791  3.248629
  C     1.111970  4.439149  3.008680
  C     0.077822  0.390105  2.735612
  C    -0.000546  3.915251  2.334014
  N     2.291105  0.845080  2.318300
  N     2.171138  4.677088  2.235831
  N     0.102698  0.040755  1.450993
  N     0.170122  3.908342  1.026596
  N    -0.292680  0.823393  5.201488
  N    -0.739154  4.046248  4.816211
  S    -1.136960  0.348032  3.896578
  S    -1.391587  3.638811  3.321961
  S     1.677685  0.243459  0.965330
  S     1.692698  4.380247  0.715955
  S     1.337358  1.206128  4.958471
  S     0.925742  4.389889  4.721495
