16  
    
  C    -0.882580 -0.689364  2.454913
  C    -0.493681  3.205783  2.917644
  C    -2.142220 -0.806606  1.723297
  C    -1.695205  2.829285  2.276369
  N     0.183585 -0.613331  1.657430
  N     0.581537  3.310517  2.129800
  N    -2.000351 -1.002518  0.405788
  N    -1.574284  2.695150  0.954274
  N    -2.632435 -0.645086  4.262523
  N    -2.344819  3.387746  4.708393
  S    -3.360653 -1.129923  2.856771
  S    -3.075116  2.716122  3.367716
  S    -0.348990 -0.776830  0.120905
  S     0.028410  2.927526  0.604843
  S    -0.989859 -0.432871  4.172031
  S    -0.729179  3.762122  4.562041
