16  
    
  C     3.046264  1.430184  3.345207
  C     3.105712  5.112999  3.356894
  C     1.791770  1.145268  2.668161
  C     1.919626  4.726007  2.644135
  N     4.043533  1.580502  2.496430
  N     4.194850  5.098549  2.590544
  N     1.909057  1.018370  1.363289
  N     2.042418  4.507275  1.362042
  N     1.282163  1.607188  5.115219
  N     1.148260  5.046750  5.048017
  S     0.443189  1.232004  3.745801
  S     0.449233  4.650856  3.589797
  S     3.507201  1.431467  0.978993
  S     3.633907  4.859054  0.991804
  S     2.930416  1.668526  5.093246
  S     2.797465  5.258273  5.131138
