16  
    
  C    -2.846653 -1.757507  2.014130
  C    -2.650336  2.209013  2.037900
  C    -4.055823 -2.123042  1.251000
  C    -3.883028  1.863383  1.313577
  N    -1.799324 -1.466285  1.249237
  N    -1.621324  2.214588  1.208451
  N    -3.815167 -2.384996 -0.022067
  N    -3.800967  1.883966 -0.014856
  N    -4.798694 -2.240020  3.671090
  N    -4.511414  1.933393  3.824395
  S    -5.467776 -2.542115  2.214597
  S    -5.267716  1.838332  2.328226
  S    -2.300607 -1.869744 -0.319325
  S    -2.194403  2.107318 -0.363107
  S    -3.188150 -1.686766  3.718613
  S    -2.914218  2.454738  3.743028
