16  
    
  C    -0.028014 -0.527189  2.458568
  C    -0.164986  3.295597  2.609997
  C    -1.192165 -1.142614  1.871787
  C    -1.257764  2.546493  1.972727
  N     0.984854 -0.300875  1.646591
  N     0.766281  3.746369  1.783185
  N    -1.165775 -1.149923  0.551426
  N    -1.000423  2.240871  0.701449
  N    -1.791306 -0.908753  4.381888
  N    -1.918703  2.830471  4.438059
  S    -2.545553 -1.301636  2.984704
  S    -2.598141  2.308956  3.013180
  S     0.364183 -0.570830  0.080105
  S     0.409180  3.034806  0.317162
  S    -0.177437 -0.549858  4.171393
  S    -0.401143  3.478245  4.310702
