16  
    
  C    -2.550532 -1.120210  2.177057
  C    -2.704109  2.562550  2.358017
  C    -3.641738 -1.739193  1.517869
  C    -3.809845  1.919673  1.717131
  N    -1.455078 -0.957593  1.394526
  N    -1.765642  3.034610  1.556758
  N    -3.533756 -1.821209  0.171903
  N    -3.682195  1.791390  0.414642
  N    -4.221823 -1.816580  4.034590
  N    -4.367835  2.030725  4.189481
  S    -5.031537 -2.054680  2.632824
  S    -4.984030  1.380265  2.817448
  S    -1.933795 -1.328531 -0.164627
  S    -2.265581  2.528085  0.004117
  S    -2.780216 -0.981325  3.879022
  S    -2.843338  2.675171  4.099516
