16  
    
  C     0.966334  0.264222  2.921529
  C     0.532568  3.588407  2.750733
  C    -0.275311 -0.131063  2.189201
  C    -0.640475  3.073848  2.078832
  N     1.941794  0.610352  2.055934
  N     1.631094  3.826141  1.966338
  N    -0.133598 -0.157836  0.865715
  N    -0.511353  3.283649  0.767556
  N    -0.774820 -0.148981  4.707075
  N    -1.240706  3.287446  4.612437
  S    -1.551707 -0.551137  3.289592
  S    -2.017616  2.802079  3.157007
  S     1.417299  0.363602  0.506622
  S     1.050582  3.571520  0.452360
  S     0.801957  0.350807  4.679558
  S     0.320171  3.637194  4.463203
