16  
    
  C    -1.055425 -0.400485  2.418079
  C    -1.147080  2.991675  2.357036
  C    -2.190496 -1.085253  1.746179
  C    -2.418455  2.843233  1.748167
  N     0.015018 -0.164446  1.634700
  N    -0.109400  3.113149  1.533818
  N    -2.056636 -1.148160  0.424769
  N    -2.323868  2.527578  0.470127
  N    -2.822977 -0.986627  4.230705
  N    -2.944295  3.174569  4.212055
  S    -3.508028 -1.443569  2.726983
  S    -3.758636  3.012645  2.794835
  S    -0.520566 -0.561692  0.074561
  S    -0.722109  2.661789  0.061112
  S    -1.237990 -0.462269  4.117847
  S    -1.311098  3.265077  4.121012
