16  
    
  C    -0.220387 -0.397838  2.790515
  C     0.138259  3.562623  2.289660
  C    -1.366787 -0.766088  1.974539
  C    -1.080497  3.032364  1.655144
  N     0.838884 -0.079784  2.044669
  N     1.205859  3.677896  1.525868
  N    -1.096249 -0.969315  0.670463
  N    -0.960171  2.974899  0.336784
  N    -2.095440 -0.642656  4.467790
  N    -1.478615  2.877224  4.258131
  S    -2.753149 -0.932918  2.975694
  S    -2.386302  2.848057  2.810323
  S     0.506305 -0.499564  0.434180
  S     0.576920  3.502186 -0.047969
  S    -0.484311 -0.261547  4.519536
  S     0.120495  3.401013  4.042024
