16  
    
  C    -1.565107 -1.086024  2.672866
  C    -1.693773  2.417834  2.400665
  C    -2.658927 -1.659330  1.961765
  C    -2.916416  2.115783  1.712627
  N    -0.443709 -0.861530  1.944097
  N    -0.682049  2.789108  1.644063
  N    -2.443643 -1.728202  0.632507
  N    -2.752817  1.913661  0.430281
  N    -3.493132 -1.482595  4.392761
  N    -3.559931  2.335514  4.189235
  S    -4.128473 -1.794745  2.900204
  S    -4.300196  2.206956  2.729144
  S    -0.932592 -1.152143  0.346809
  S    -1.136028  2.342110  0.092278
  S    -1.865284 -1.216198  4.465069
  S    -1.944806  2.760972  4.091755
