16  
    
  C    -2.732122 -1.582478  2.133030
  C    -2.550665  2.437751  2.222592
  C    -3.989472 -1.827280  1.541610
  C    -3.755798  1.902326  1.578181
  N    -1.723180 -1.214419  1.291811
  N    -1.478130  2.605302  1.439355
  N    -3.858555 -1.986820  0.202558
  N    -3.610182  1.854719  0.247715
  N    -4.442654 -1.465907  4.072613
  N    -4.244190  1.858420  4.105368
  S    -5.258345 -2.078173  2.746745
  S    -5.091941  1.692530  2.654497
  S    -2.240619 -1.560074 -0.213174
  S    -2.032216  2.269669 -0.104952
  S    -2.764432 -1.347713  3.858712
  S    -2.632261  2.388145  3.937476
