16  
    
  C    -5.866394 -3.164139  1.443677
  C    -6.037714  0.860805  1.362088
  C    -7.054351 -3.342043  0.650476
  C    -7.230331  0.465923  0.688804
  N    -4.750088 -2.896920  0.775111
  N    -5.021837  1.149724  0.571308
  N    -6.782821 -3.570363 -0.645604
  N    -7.193184  0.422499 -0.656124
  N    -7.757533 -3.262148  3.134807
  N    -7.727071  0.252356  3.217263
  S    -8.481829 -3.420533  1.640914
  S    -8.591833  0.130322  1.755496
  S    -5.153479 -3.247773 -0.776636
  S    -5.593384  0.829073 -1.001027
  S    -6.092829 -2.972852  3.131843
  S    -6.139383  0.708256  3.049654
