16  
    
  C    -5.346177 -2.142857  1.606447
  C    -5.363692  1.146622  1.420922
  C    -6.629486 -2.518332  1.003264
  C    -6.587597  0.734127  0.784585
  N    -4.350227 -1.903310  0.709802
  N    -4.325538  1.199886  0.571661
  N    -6.438800 -2.838634 -0.272323
  N    -6.462765  0.505421 -0.527942
  N    -7.043422 -2.573503  3.496323
  N    -7.041736  0.982214  3.265515
  S    -7.944585 -2.858639  2.098082
  S    -7.897357  0.591321  1.917994
  S    -4.894820 -2.571648 -0.716809
  S    -4.863998  0.819240 -0.933987
  S    -5.487734 -2.043829  3.349332
  S    -5.466608  1.377545  3.164443
