16  
    
  C     3.356485  1.526974  3.560442
  C     3.153826  5.019503  3.487436
  C     2.027641  1.444489  3.008678
  C     1.864082  4.924104  2.819854
  N     4.300772  1.417560  2.611840
  N     4.219152  5.084336  2.699164
  N     1.982040  1.330446  1.683390
  N     1.997881  4.599950  1.519131
  N     1.620548  1.440891  5.547335
  N     1.382995  5.152302  5.392052
  S     0.697479  1.385704  4.136210
  S     0.594390  4.723812  3.991964
  S     3.555336  1.317710  1.190316
  S     3.665830  4.630657  1.192221
  S     3.273796  1.619967  5.291347
  S     3.011906  5.256750  5.166658
