16  
    
  C    -2.682329 -1.798243  2.020850
  C    -2.913404  2.303471  1.885881
  C    -3.919476 -2.152167  1.318247
  C    -4.063773  1.917054  1.136132
  N    -1.617484 -1.917333  1.230098
  N    -1.878068  2.686435  1.131423
  N    -3.799799 -2.214391  0.003255
  N    -3.861851  1.718761 -0.184025
  N    -4.678924 -1.908051  3.706800
  N    -4.744741  1.828952  3.622830
  S    -5.404396 -2.276924  2.253734
  S    -5.422920  1.467444  2.140497
  S    -2.186449 -2.046572 -0.327706
  S    -2.338465  2.225587 -0.442948
  S    -3.001528 -1.734102  3.710366
  S    -3.150454  2.335836  3.647845
