16  
    
  C     2.444940  1.149675  3.329613
  C     2.854417  5.243378  3.866123
  C     1.303647  0.635064  2.587974
  C     1.635652  4.708429  3.283539
  N     3.594093  1.291235  2.686342
  N     3.817719  5.437259  2.967026
  N     1.628043  0.368768  1.328599
  N     1.894054  4.129664  2.090974
  N     0.549386  0.926895  5.071608
  N     1.226216  5.172110  5.770249
  S    -0.130563  0.475550  3.571598
  S     0.334896  4.747262  4.475266
  S     3.213768  0.785545  1.133722
  S     3.365432  4.763982  1.567109
  S     2.158626  1.389036  5.001079
  S     2.790194  5.728813  5.525937
