16  
    
  C    -5.849835 -2.719745  1.250282
  C    -5.661262  0.811334  1.531194
  C    -7.062123 -3.067105  0.583956
  C    -6.846748  0.378280  0.869061
  N    -4.783367 -2.539883  0.488107
  N    -4.578570  0.874300  0.723985
  N    -6.946679 -3.158067 -0.727743
  N    -6.638477  0.314261 -0.455988
  N    -7.416371 -3.260122  3.180613
  N    -7.411650  0.494118  3.319767
  S    -8.315529 -3.445386  1.817909
  S    -8.210625  0.303463  1.880004
  S    -5.309477 -2.832105 -1.073468
  S    -5.056176  0.571631 -0.814410
  S    -5.983298 -2.491173  2.939557
  S    -5.915340  1.112459  3.305835
