16  
    
  C    -1.924467 -1.168947  2.147316
  C    -2.451045  2.528242  1.992374
  C    -3.151870 -1.556248  1.487850
  C    -3.705701  2.010705  1.409734
  N    -0.907840 -0.903732  1.338750
  N    -1.483881  2.496712  1.112032
  N    -3.009320 -1.730930  0.170088
  N    -3.700172  1.881557  0.072451
  N    -3.756361 -1.285538  3.967676
  N    -4.128921  2.438642  3.974258
  S    -4.445562 -1.945703  2.611076
  S    -4.972931  2.002099  2.612719
  S    -1.465117 -1.264946 -0.198234
  S    -2.117937  2.188339 -0.383809
  S    -2.131333 -0.839842  3.776521
  S    -2.546941  2.942563  3.675395
