16  
    
  C     3.648770  1.936181  3.563129
  C     3.225198  5.345938  3.447693
  C     2.385928  1.506086  2.974291
  C     2.025349  4.811173  2.874828
  N     4.680472  2.131054  2.777088
  N     4.255899  5.513072  2.669678
  N     2.515614  1.318839  1.671277
  N     2.165457  4.639025  1.561781
  N     1.961775  1.400421  5.530540
  N     1.601325  5.025100  5.372699
  S     1.047909  1.240390  4.119316
  S     0.757543  4.467320  3.989081
  S     4.127902  1.719287  1.273892
  S     3.719811  5.177577  1.180967
  S     3.461184  2.166759  5.295443
  S     3.199034  5.360223  5.207316
