16  
    
  C    -4.236291 -2.249206  1.633072
  C    -4.235115  1.703160  1.890971
  C    -5.503404 -2.594284  1.015096
  C    -5.427383  1.151925  1.282075
  N    -3.170676 -2.250313  0.801681
  N    -3.159077  1.692380  1.107454
  N    -5.396840 -2.896930 -0.259088
  N    -5.266354  0.673852  0.059612
  N    -5.970245 -2.010441  3.567433
  N    -6.054655  1.465458  3.771740
  S    -6.766388 -2.686338  2.218986
  S    -6.801494  0.994055  2.334019
  S    -3.740561 -2.767700 -0.672071
  S    -3.623657  0.967364 -0.270136
  S    -4.329188 -1.800939  3.378973
  S    -4.535703  2.167486  3.500723
