16  
    
  C     1.387993  0.782760  3.364426
  C     1.191070  4.472853  3.161735
  C     0.138940  0.280159  2.854013
  C    -0.000777  3.967101  2.579188
  N     2.373949  0.915351  2.518817
  N     2.186324  4.613457  2.287114
  N     0.188465 -0.091521  1.566779
  N    -0.096825  4.117351  1.250824
  N    -0.221923  0.990374  5.382580
  N    -0.391328  4.185444  5.192188
  S    -1.111672  0.503189  3.995197
  S    -1.245427  3.804347  3.756153
  S     1.749382  0.318263  1.095148
  S     1.521259  4.412895  0.742575
  S     1.391377  1.200571  5.052372
  S     1.167130  4.598110  4.867683
