16  
    
  C    -1.235200 -0.346366  2.183831
  C    -1.167954  3.051840  2.266544
  C    -2.479933 -0.933016  1.624503
  C    -2.423268  2.727365  1.688375
  N    -0.241414 -0.249081  1.299174
  N    -0.230694  3.105423  1.327410
  N    -2.430254 -1.151123  0.301689
  N    -2.536558  2.780233  0.355989
  N    -2.929210 -0.729975  4.088652
  N    -2.807352  3.060812  4.226896
  S    -3.724936 -1.330232  2.738101
  S    -3.728070  2.712701  2.884905
  S    -0.866205 -0.769263 -0.198660
  S    -0.966263  2.950763 -0.166015
  S    -1.385397 -0.168762  3.859748
  S    -1.190572  3.323558  3.996114
