16  
    
  C    -4.737844 -2.671112  1.507278
  C    -4.636830  1.139114  1.493313
  C    -5.975597 -3.007981  0.888950
  C    -5.878403  0.928976  0.838572
  N    -3.769482 -2.539662  0.644729
  N    -3.588515  1.181127  0.693093
  N    -5.981353 -2.998603 -0.452113
  N    -5.751257  0.822755 -0.493734
  N    -6.408263 -2.725829  3.444022
  N    -6.423843  0.735129  3.364899
  S    -7.275807 -2.968897  2.009901
  S    -7.229607  0.649900  1.841339
  S    -4.424371 -2.747794 -0.871976
  S    -4.164746  0.908635 -0.843980
  S    -4.762220 -2.494733  3.234471
  S    -4.763152  0.910139  3.227412
