16  
    
  C     2.740284  1.352623  3.678251
  C     2.980312  5.227691  3.628554
  C     1.502634  1.056689  2.970580
  C     1.708046  4.918987  2.969116
  N     3.822277  1.534515  2.932263
  N     4.028384  5.226647  2.778913
  N     1.643986  0.987773  1.668208
  N     1.780285  4.938459  1.637712
  N     0.967332  0.718936  5.412857
  N     1.104872  5.017902  5.464226
  S     0.164475  0.610150  3.935871
  S     0.290561  5.032472  4.009673
  S     3.264109  1.246234  1.321447
  S     3.426678  4.920998  1.266152
  S     2.551473  1.284768  5.402964
  S     2.765402  5.234821  5.386470
