16  
    
  C     2.541328  1.110759  3.226157
  C     2.540054  4.691488  3.533527
  C     1.344611  0.797328  2.484745
  C     1.338513  4.426820  2.761642
  N     3.577789  1.304106  2.427495
  N     3.583888  5.040538  2.755926
  N     1.423909  0.745354  1.178676
  N     1.450840  4.326151  1.442547
  N     0.736800  0.772232  4.965163
  N     0.518287  4.459970  5.239845
  S     0.078088  0.321164  3.500565
  S     0.029636  3.921815  3.728142
  S     3.046710  1.068572  0.839940
  S     3.041024  4.718504  1.171157
  S     2.329058  0.961997  4.976151
  S     2.132893  4.985459  5.234109
