16  
    
  C    -3.613669 -2.534303  1.842786
  C    -3.477232  1.734387  1.741491
  C    -4.830899 -2.936523  1.135850
  C    -4.534810  0.958905  1.211480
  N    -2.570621 -2.403853  1.057847
  N    -2.503227  2.075689  0.897709
  N    -4.728326 -2.976027 -0.201326
  N    -4.339895  0.691106 -0.052375
  N    -5.418548 -2.749146  3.619136
  N    -5.296554  1.521752  3.623360
  S    -6.174556 -3.162875  2.166442
  S    -5.926373  0.757233  2.308958
  S    -3.158051 -2.606790 -0.490856
  S    -2.908426  1.404958 -0.552853
  S    -3.769822 -2.414939  3.578608
  S    -3.773400  2.124373  3.485489
