16  
    
  C    -5.401753 -2.820245  1.521944
  C    -5.529864  1.067993  1.306682
  C    -6.644161 -3.119634  0.822702
  C    -6.690267  0.550523  0.637078
  N    -4.336974 -2.684876  0.742912
  N    -4.479111  1.355524  0.554798
  N    -6.541998 -3.303270 -0.481629
  N    -6.513947  0.406280 -0.643760
  N    -7.130933 -3.083209  3.389744
  N    -7.279406  0.597288  3.184306
  S    -7.911493 -3.573747  1.961834
  S    -7.931066  0.051831  1.733890
  S    -4.902900 -2.972048 -0.828215
  S    -4.974337  0.938199 -1.003531
  S    -5.533440 -2.614896  3.236271
  S    -5.748525  1.146193  3.029750
