16  
    
  C     3.739162  2.097004  3.680193
  C     3.468679  5.427486  3.577540
  C     2.587215  1.589196  2.949224
  C     2.274633  4.918705  2.949365
  N     4.821664  2.397960  2.930789
  N     4.544135  5.447837  2.788024
  N     2.808266  1.289836  1.676609
  N     2.338896  4.883968  1.639104
  N     1.787826  1.981999  5.340126
  N     1.787020  4.916432  5.394128
  S     1.096333  1.465270  3.911844
  S     0.933172  4.694829  4.011246
  S     4.343277  1.801588  1.313766
  S     3.869244  5.296905  1.248802
  S     3.417860  2.219211  5.348348
  S     3.408725  5.394999  5.300246
