16  
    
  C     2.341364  0.800186  3.521488
  C     1.935424  5.133310  3.066740
  C     1.011977  0.684227  2.940511
  C     0.842904  4.395913  2.398721
  N     3.380294  0.686689  2.703172
  N     2.981650  5.459548  2.325571
  N     1.015426  0.660009  1.633638
  N     1.079728  4.200989  1.123398
  N     0.633202  1.119676  5.393122
  N     0.043909  4.752915  4.820015
  S    -0.254629  0.478700  4.139561
  S    -0.588328  4.107465  3.348623
  S     2.677153  0.633206  1.169430
  S     2.603233  4.756062  0.848671
  S     2.290037  1.099659  5.213706
  S     1.639115  5.221251  4.794212
