16  
    
  C    -4.891204 -2.672164  1.972251
  C    -5.374562  1.060132  1.706879
  C    -6.173029 -2.968076  1.320589
  C    -6.650554  0.785342  1.056013
  N    -3.838006 -2.570325  1.130836
  N    -4.289007  1.048248  0.935339
  N    -6.054392 -3.266111  0.035417
  N    -6.536543  0.592931 -0.260176
  N    -6.768016 -2.709364  3.794933
  N    -7.124807  0.998110  3.505151
  S    -7.601490 -2.931297  2.354399
  S    -7.999112  0.647300  2.148513
  S    -4.427416 -3.026183 -0.398121
  S    -4.932221  0.799734 -0.599191
  S    -5.207418 -2.200535  3.649726
  S    -5.530899  1.327546  3.453202
