16  
    
  C    -1.392613 -1.175166  2.677744
  C    -1.582344  2.680620  2.342746
  C    -2.543867 -1.466539  1.827157
  C    -2.681595  2.166705  1.612448
  N    -0.279492 -0.952703  1.988210
  N    -0.460668  2.747576  1.666815
  N    -2.285917 -1.613433  0.532065
  N    -2.506407  1.954109  0.310102
  N    -3.424519 -1.736943  4.315369
  N    -3.483308  2.488853  4.066419
  S    -4.017246 -1.981135  2.745929
  S    -4.058366  1.881240  2.626507
  S    -0.672000 -1.198899  0.350048
  S    -0.847348  2.221935  0.137271
  S    -1.885304 -1.027582  4.330605
  S    -1.899671  2.996551  4.056054
