16  
    
  C     1.599329  0.881270  3.257155
  C     2.049283  4.450926  3.347203
  C     0.465204  0.314828  2.523645
  C     0.757281  4.086769  2.716249
  N     2.686899  1.168506  2.508595
  N     2.983815  4.755438  2.443701
  N     0.696209  0.178177  1.194767
  N     0.843103  3.821449  1.400996
  N    -0.279037  0.391407  4.997109
  N     0.255346  4.453035  5.147420
  S    -0.933597  0.013195  3.525755
  S    -0.532018  3.891247  3.810765
  S     2.243453  0.759728  0.948400
  S     2.438964  4.198420  0.902988
  S     1.276199  1.186805  4.950403
  S     1.783506  4.920445  4.988953
