16  
    
  C    -3.974723 -2.101726  1.709608
  C    -4.006639  1.586664  1.686519
  C    -5.278305 -2.270786  1.113263
  C    -5.285999  1.240131  1.039473
  N    -2.969769 -1.998003  0.876847
  N    -2.945027  1.484471  0.930931
  N    -5.213668 -2.478643 -0.207290
  N    -5.173593  1.122039 -0.279230
  N    -5.762090 -1.810207  3.578164
  N    -5.727673  1.592753  3.504761
  S    -6.656139 -2.284628  2.245263
  S    -6.565721  1.351664  2.092015
  S    -3.633730 -2.265341 -0.662480
  S    -3.586574  1.174207 -0.620169
  S    -4.078974 -1.725322  3.439415
  S    -4.052138  1.663492  3.422096
