16  
    
  C     1.893719  0.550101  3.155477
  C     1.950312  4.075870  3.182060
  C     0.583682  0.355913  2.603743
  C     0.606644  3.999048  2.576892
  N     2.857470  0.514139  2.255822
  N     2.893705  4.386879  2.284961
  N     0.533562  0.267964  1.281646
  N     0.632550  3.878938  1.258770
  N     0.337674  0.512255  5.149370
  N     0.176366  4.288485  5.131838
  S    -0.587382  0.133435  3.819223
  S    -0.759900  4.047958  3.722137
  S     2.153126  0.339808  0.792982
  S     2.200897  4.057984  0.836073
  S     1.981904  0.786790  4.843597
  S     1.798917  4.251038  4.891111
