16  
    
  C    -0.073090 -0.420658  2.418683
  C    -0.365763  3.441398  2.610148
  C    -1.213705 -0.940726  1.819778
  C    -1.680418  3.041555  2.052777
  N     0.997509 -0.256231  1.657133
  N     0.647262  3.392004  1.740858
  N    -1.181400 -0.995117  0.496517
  N    -1.626715  3.049510  0.708409
  N    -1.901217 -0.605325  4.285392
  N    -2.012071  3.217265  4.566303
  S    -2.551848 -1.291455  2.920707
  S    -2.924766  2.915226  3.203461
  S     0.424766 -0.588495  0.079517
  S    -0.054249  3.222056  0.232303
  S    -0.355165  0.021308  4.073598
  S    -0.403989  3.606376  4.342810
