16  
    
  C     3.447593  1.499352  3.619738
  C     3.041568  5.324869  3.396023
  C     2.201876  1.048355  3.133031
  C     1.934899  4.605406  2.754941
  N     4.291005  1.685795  2.596501
  N     4.084450  5.477600  2.615794
  N     2.144817  0.831622  1.819073
  N     2.119727  4.281396  1.498731
  N     1.841831  1.319281  5.621168
  N     1.245811  4.768098  5.176415
  S     0.867648  0.979545  4.291025
  S     0.595209  4.252286  3.741889
  S     3.589749  1.310117  1.212970
  S     3.606588  4.923731  1.094897
  S     3.404560  1.853788  5.302816
  S     2.730045  5.482896  5.058207
