16  
    
  C     0.822514  0.455295  3.002269
  C     0.536593  3.876515  2.945569
  C    -0.394257 -0.001087  2.370411
  C    -0.711687  3.530495  2.357910
  N     1.891422  0.416303  2.187709
  N     1.509429  3.826285  2.048629
  N    -0.316835 -0.172880  1.063171
  N    -0.742000  3.138281  1.113417
  N    -0.967334  0.259522  4.901303
  N    -1.094344  3.748792  4.975176
  S    -1.792005  0.064506  3.470017
  S    -1.963230  3.303938  3.566131
  S     1.301090  0.093068  0.638048
  S     0.859968  3.404059  0.598785
  S     0.636901  0.699370  4.764097
  S     0.467888  4.097216  4.698158
