16  
    
  C     2.337616  0.792561  3.520703
  C     1.938659  5.108788  3.061795
  C     1.005334  0.679205  2.939444
  C     0.820221  4.422462  2.386385
  N     3.372378  0.685662  2.703589
  N     2.978969  5.468540  2.339618
  N     1.011628  0.658863  1.639361
  N     1.076617  4.206925  1.111590
  N     0.633830  1.115819  5.379291
  N     0.026146  4.770906  4.832363
  S    -0.259920  0.482568  4.154716
  S    -0.588516  4.099629  3.345034
  S     2.687935  0.635591  1.164045
  S     2.616310  4.762262  0.852653
  S     2.288438  1.104331  5.214407
  S     1.644855  5.233879  4.806900
