16  
    
  C    -3.947005 -1.763742  1.698986
  C    -3.821722  1.589830  1.745080
  C    -5.176904 -2.146851  1.034952
  C    -5.121487  1.233960  1.111066
  N    -2.906568 -1.700675  0.889853
  N    -2.793195  1.588775  0.926728
  N    -5.036127 -2.552970 -0.235868
  N    -5.039524  1.146943 -0.223697
  N    -5.793623 -2.049269  3.495805
  N    -5.584976  1.488920  3.647891
  S    -6.584020 -2.287087  2.077687
  S    -6.492418  1.363000  2.266850
  S    -3.443833 -2.331748 -0.582504
  S    -3.474956  1.378610 -0.685792
  S    -4.193764 -1.580618  3.374458
  S    -3.967262  1.716698  3.482587
