16  
    
  C    -0.388018 -0.752567  2.711168
  C    -0.328437  3.292731  2.760066
  C    -1.675939 -1.226333  2.185555
  C    -1.480371  2.760502  2.076976
  N     0.546039 -0.616942  1.808230
  N     0.710881  3.500958  1.916321
  N    -1.758825 -1.431609  0.893536
  N    -1.208901  2.280029  0.864684
  N    -2.115528 -0.688293  4.680036
  N    -2.268904  3.048152  4.456916
  S    -2.959679 -1.131854  3.308968
  S    -2.809139  2.307857  3.098084
  S    -0.205954 -1.013366  0.346824
  S     0.272997  2.892949  0.451219
  S    -0.521026 -0.355633  4.418542
  S    -0.743420  3.685978  4.390654
