16  
    
  C    -0.913525 -0.857308  2.353356
  C    -0.728928  3.067636  2.465513
  C    -2.091933 -1.465516  1.637206
  C    -1.932985  2.562725  1.876318
  N     0.084282 -0.628588  1.504901
  N     0.288984  3.099063  1.598124
  N    -1.850359 -1.919255  0.382754
  N    -1.890556  2.452136  0.541175
  N    -2.771800 -0.904686  4.064407
  N    -2.428386  2.724113  4.363907
  S    -3.426113 -1.495529  2.662212
  S    -3.303173  2.468943  2.979247
  S    -0.286431 -1.280933  0.020901
  S    -0.326300  2.766083  0.091905
  S    -1.245280 -0.251413  3.935112
  S    -0.859264  3.244524  4.185517
