16  
    
  C    -0.148962 -0.166408  2.501892
  C    -0.404425  3.404809  2.517050
  C    -1.255230 -0.926402  1.800513
  C    -1.626831  3.017419  1.955491
  N     0.926746 -0.059937  1.741322
  N     0.572414  3.488635  1.632794
  N    -1.032044 -1.080498  0.528364
  N    -1.645518  2.792656  0.637471
  N    -1.954053 -0.645835  4.256403
  N    -1.984660  3.158237  4.578033
  S    -2.651532 -1.177783  2.840967
  S    -2.916686  2.997496  3.161507
  S     0.529524 -0.572295  0.178366
  S    -0.082149  3.149789  0.132947
  S    -0.396704 -0.005370  4.178471
  S    -0.362219  3.400673  4.255804
