16  
    
  C     0.970742  0.239180  2.943374
  C     0.542889  3.541226  2.776397
  C    -0.262991 -0.125002  2.204163
  C    -0.658642  3.087640  2.067584
  N     1.940832  0.615082  2.087701
  N     1.606477  3.880723  2.004083
  N    -0.104714 -0.148579  0.869028
  N    -0.513350  3.236654  0.738719
  N    -0.758408 -0.162535  4.698311
  N    -1.261768  3.277121  4.588978
  S    -1.542764 -0.538825  3.267039
  S    -2.006569  2.792260  3.148389
  S     1.418991  0.371392  0.526782
  S     1.076138  3.566124  0.467490
  S     0.808580  0.331673  4.671278
  S     0.303176  3.657106  4.473025
