16  
    
  C    -1.059933 -0.452732  2.449077
  C    -1.087317  3.174210  2.440632
  C    -2.148934 -0.983766  1.711123
  C    -2.358121  2.746820  1.783829
  N    -0.044670 -0.133964  1.618305
  N    -0.044219  3.039385  1.608042
  N    -1.962689 -1.177308  0.401860
  N    -2.292073  2.460701  0.477073
  N    -2.774084 -1.058105  4.213595
  N    -2.950499  3.162677  4.207952
  S    -3.439114 -1.457344  2.760893
  S    -3.770434  3.052254  2.779538
  S    -0.445638 -0.628983  0.101032
  S    -0.683528  2.675903  0.085219
  S    -1.179384 -0.544581  4.200020
  S    -1.299021  3.277158  4.118874
