16  
    
  C     0.620468  0.284203  3.109348
  C     0.701856  4.011544  2.923121
  C    -0.617125  0.111799  2.464721
  C    -0.452618  3.351647  2.407884
  N     1.650794  0.211048  2.309795
  N     1.787659  4.044942  2.140424
  N    -0.561139  0.049741  1.135029
  N    -0.394395  3.270534  1.066743
  N    -1.091390  0.199109  4.931153
  N    -1.086039  3.815465  4.819335
  S    -1.940241  0.235310  3.525979
  S    -1.842897  3.166128  3.444815
  S     1.025137  0.099223  0.775859
  S     1.193497  3.376670  0.665250
  S     0.567354  0.514670  4.850209
  S     0.469001  4.361028  4.617853
