16  
    
  C     2.651054  1.237863  3.587509
  C     2.865266  5.036997  3.619984
  C     1.486823  0.851981  2.800542
  C     1.612999  4.971232  2.945458
  N     3.787754  1.543928  2.956833
  N     3.943655  4.915737  2.856013
  N     1.740353  0.870621  1.482290
  N     1.710334  4.791058  1.621328
  N     0.852028  0.810528  5.378343
  N     1.174652  5.359503  5.560730
  S     0.155267  0.529761  3.903338
  S     0.328342  5.143454  4.124006
  S     3.305215  1.367448  1.286521
  S     3.349676  4.926433  1.275896
  S     2.472522  1.103018  5.301138
  S     2.843631  5.246534  5.318722
