16  
    
  C    -0.103749 -0.441329  2.478947
  C    -0.362223  3.296552  2.553068
  C    -1.308538 -0.875632  1.706419
  C    -1.649809  3.066729  2.001137
  N     0.931685 -0.196573  1.700994
  N     0.603123  3.529244  1.672769
  N    -1.094881 -1.096269  0.424133
  N    -1.662164  3.001367  0.664897
  N    -1.879513 -0.602227  4.300009
  N    -1.975576  3.187708  4.530084
  S    -2.522635 -1.242222  2.882143
  S    -2.938284  2.958262  3.227399
  S     0.482311 -0.554121  0.169049
  S    -0.052266  3.171231  0.199387
  S    -0.365171  0.047576  4.131298
  S    -0.395743  3.506367  4.258519
