16  
    
  C    -0.052554 -0.459078  2.478000
  C    -0.369192  3.395410  2.593785
  C    -1.285482 -0.886047  1.759849
  C    -1.624674  3.020438  2.009139
  N     0.979505 -0.216843  1.686066
  N     0.605138  3.451745  1.705255
  N    -1.168321 -1.070538  0.424671
  N    -1.652884  3.053840  0.699187
  N    -1.890098 -0.599916  4.310736
  N    -1.962718  3.206740  4.523878
  S    -2.525136 -1.269079  2.898942
  S    -2.943270  2.937605  3.224250
  S     0.460465 -0.566129  0.129515
  S    -0.050875  3.193982  0.215308
  S    -0.361441  0.039754  4.093206
  S    -0.407087  3.552689  4.293982
