16  
    
  C    -5.886995 -3.147208  1.419038
  C    -6.013224  0.904185  1.339434
  C    -7.088711 -3.349788  0.618199
  C    -7.247203  0.485959  0.656149
  N    -4.772410 -2.907429  0.716858
  N    -4.955932  1.125567  0.552221
  N    -6.771234 -3.528286 -0.658676
  N    -7.160414  0.472453 -0.678815
  N    -7.710420 -3.286990  3.124729
  N    -7.736999  0.261302  3.197477
  S    -8.512559 -3.437189  1.637581
  S    -8.607041  0.164598  1.763657
  S    -5.152455 -3.251246 -0.798079
  S    -5.562834  0.812797 -0.999564
  S    -6.090076 -2.949423  3.116003
  S    -6.161450  0.681996  3.066127
