16  
    
  C     1.988631  1.047234  3.013375
  C     2.252498  4.341424  3.071853
  C     0.796829  0.499332  2.388493
  C     1.026485  4.139591  2.281770
  N     2.989873  1.235054  2.129937
  N     3.382091  4.341761  2.359181
  N     0.960834  0.155765  1.091019
  N     1.345507  3.720691  1.059909
  N     0.181632  1.089599  4.803325
  N     0.205562  4.466859  4.686391
  S    -0.570321  0.658732  3.458369
  S    -0.361662  3.810243  3.208106
  S     2.442936  0.640288  0.711546
  S     2.919982  3.998510  0.819969
  S     1.862454  1.312807  4.746558
  S     1.896726  4.685459  4.763563
