16  
    
  C     2.019714  1.071766  3.141529
  C     2.195204  4.367155  3.010101
  C     0.772371  0.701185  2.494413
  C     0.994080  3.958532  2.217313
  N     3.059404  1.164326  2.362334
  N     3.236914  4.559866  2.219564
  N     0.871686  0.583551  1.168800
  N     1.226813  3.541736  0.973482
  N     0.374106  0.890018  5.085033
  N     0.355846  4.211286  4.771513
  S    -0.508700  0.441610  3.648982
  S    -0.431775  3.901317  3.344345
  S     2.520488  0.818553  0.822685
  S     2.791441  4.106476  0.689471
  S     1.909645  1.441313  4.813321
  S     2.002410  4.560290  4.725498
