16  
    
  C    -4.310499 -1.766774  1.968715
  C    -4.139752  1.615965  1.900539
  C    -5.500454 -2.271495  1.335201
  C    -5.383518  1.086090  1.354480
  N    -3.291536 -1.710592  1.143633
  N    -3.166571  1.576741  1.025490
  N    -5.376240 -2.675379  0.087681
  N    -5.432251  0.806047  0.059168
  N    -5.959814 -2.149634  3.849789
  N    -5.823428  1.531505  3.828931
  S    -6.864101 -2.358541  2.434016
  S    -6.664273  0.963019  2.546720
  S    -3.760318 -2.334163 -0.314281
  S    -3.787721  1.062021 -0.426822
  S    -4.409367 -1.566936  3.697314
  S    -4.208538  1.833327  3.598466
