16  
    
  C     3.190920  1.623012  3.635306
  C     3.117159  5.222172  3.419327
  C     1.996131  1.143454  3.034897
  C     1.996249  4.494365  2.772728
  N     4.201832  1.660930  2.785639
  N     4.186164  5.343208  2.650409
  N     2.126973  0.821431  1.764801
  N     2.137872  4.400511  1.447681
  N     1.446497  1.451093  5.471592
  N     1.330663  4.822613  5.159975
  S     0.702128  1.048481  4.076671
  S     0.655242  4.230236  3.717049
  S     3.698348  1.104255  1.373661
  S     3.699289  4.911751  1.093785
  S     2.960477  2.060747  5.347275
  S     2.886577  5.370003  5.115344
