16  
    
  C     0.831179  0.327743  2.995571
  C     0.545414  3.744432  2.923541
  C    -0.409721  0.078688  2.307041
  C    -0.752972  3.427434  2.392186
  N     1.882405  0.409802  2.179297
  N     1.537741  3.811977  2.047434
  N    -0.248676 -0.192536  1.018431
  N    -0.776339  3.518432  1.079587
  N    -0.939087  0.284627  4.859999
  N    -1.119384  3.620188  4.916223
  S    -1.702817 -0.082522  3.443114
  S    -2.049074  3.288677  3.630819
  S     1.340175  0.022593  0.658144
  S     0.773577  3.519882  0.568014
  S     0.660897  0.713183  4.686696
  S     0.520601  3.948816  4.652194
