16  
    
  C    -4.167992 -2.309119  1.577086
  C    -4.307892  1.686736  1.931324
  C    -5.429819 -2.860131  1.065722
  C    -5.446905  1.124573  1.225601
  N    -3.127987 -2.333448  0.749104
  N    -3.222673  1.732040  1.185478
  N    -5.352248 -3.137159 -0.224434
  N    -5.161988  0.673601  0.028318
  N    -5.947578 -2.305128  3.480780
  N    -6.112704  1.516672  3.659116
  S    -6.770681 -2.738506  2.128455
  S    -6.842289  0.990986  2.284664
  S    -3.829829 -2.801494 -0.701740
  S    -3.619502  1.010205 -0.248974
  S    -4.324174 -1.941545  3.292145
  S    -4.536311  2.105663  3.651399
