16  
    
  C    -5.781446 -3.017099  1.538333
  C    -6.070271  0.766327  1.352196
  C    -6.928004 -3.497575  0.811584
  C    -7.253533  0.273424  0.716416
  N    -4.664168 -2.970387  0.804086
  N    -5.153063  1.189016  0.489621
  N    -6.715136 -3.611075 -0.499160
  N    -7.195342  0.235656 -0.631567
  N    -7.805829 -3.122095  3.194070
  N    -7.689688  0.242201  3.234645
  S    -8.407315 -3.384760  1.649152
  S    -8.537788 -0.043336  1.853314
  S    -5.143350 -3.247745 -0.775062
  S    -5.756273  0.926573 -0.995001
  S    -6.181554 -3.060009  3.281190
  S    -6.111217  0.813873  3.112714
