16  
    
  C    -3.895453 -2.279970  1.652542
  C    -3.410449  1.771927  1.623329
  C    -5.141917 -2.447120  0.973947
  C    -4.625805  1.211179  0.969476
  N    -2.874072 -2.167069  0.818722
  N    -2.494720  2.046732  0.743136
  N    -5.129878 -2.239057 -0.318697
  N    -4.564975  1.024330 -0.350388
  N    -5.586047 -2.370226  3.483050
  N    -5.143077  1.584115  3.508270
  S    -6.412943 -2.750461  2.103767
  S    -5.905432  0.958976  2.183574
  S    -3.502797 -2.023423 -0.675007
  S    -3.046771  1.645179 -0.805492
  S    -3.932049 -2.579286  3.325930
  S    -3.626519  2.163063  3.295210
