16  
    
  C     2.985370  1.538370  3.442522
  C     2.981842  5.151228  3.213051
  C     1.732741  1.259608  2.761956
  C     1.793847  4.608218  2.598801
  N     3.983073  1.632251  2.555524
  N     4.022581  5.142906  2.402051
  N     1.783074  1.189022  1.436982
  N     1.862591  4.384249  1.284798
  N     1.235881  0.936104  5.245198
  N     1.142629  4.974241  5.088900
  S     0.396717  0.837294  3.767448
  S     0.451263  4.430030  3.661306
  S     3.414893  1.396450  1.071321
  S     3.461774  4.791568  0.878632
  S     2.799286  1.602285  5.181208
  S     2.751126  5.385456  4.974965
