16  
    
  C     2.527148  1.125176  3.276157
  C     3.007503  5.306929  3.852633
  C     1.365151  0.526908  2.611576
  C     1.700832  5.144317  3.263527
  N     3.599314  1.320597  2.505509
  N     3.973402  5.139682  2.951681
  N     1.502423  0.306673  1.320580
  N     1.685505  4.614592  2.050576
  N     0.630025  0.695381  5.072482
  N     1.265669  5.613652  5.784067
  S     0.003498  0.329745  3.590359
  S     0.412120  5.364141  4.414093
  S     3.028149  0.783416  0.936429
  S     3.271313  4.733591  1.478904
  S     2.197784  1.341835  4.971050
  S     2.893564  5.811440  5.579072
