16  
    
  C     0.681949  0.472406  3.072440
  C     0.585107  3.903913  2.949870
  C    -0.522307  0.091066  2.407734
  C    -0.526776  3.187876  2.450185
  N     1.718222  0.474656  2.249904
  N     1.581602  4.061963  2.079880
  N    -0.407500 -0.070645  1.095770
  N    -0.430566  2.872328  1.160226
  N    -1.060881  0.274788  4.942184
  N    -1.212119  4.005433  4.823677
  S    -1.878079  0.286913  3.527212
  S    -1.942239  3.302887  3.562058
  S     1.179232  0.146660  0.689421
  S     1.076882  3.313834  0.714550
  S     0.609832  0.511617  4.848116
  S     0.463407  4.319797  4.634699
