16  
    
  C     2.230288  1.030842  3.476935
  C     2.130833  4.891131  3.170551
  C     0.967293  0.646630  2.888999
  C     0.903304  4.493216  2.483368
  N     3.195688  1.133832  2.555115
  N     3.069427  5.272307  2.338628
  N     0.962721  0.571751  1.576948
  N     0.969768  4.439170  1.157898
  N     0.509258  1.008098  5.390468
  N     0.401920  4.376906  4.958634
  S    -0.334367  0.447091  3.986345
  S    -0.415909  4.097863  3.556245
  S     2.544277  0.913843  1.081499
  S     2.556679  4.897764  0.807594
  S     2.114535  1.361924  5.188135
  S     2.067340  4.702337  4.925619
