16  
    
  C    -4.798189 -2.509116  1.894871
  C    -5.218912  1.231269  1.807150
  C    -5.978573 -3.066699  1.263758
  C    -6.357468  0.565175  1.154997
  N    -3.807813 -2.225942  1.045357
  N    -4.168961  1.330669  1.014427
  N    -5.878860 -3.159007 -0.072714
  N    -6.233961  0.194789 -0.133510
  N    -6.676521 -2.838721  3.801229
  N    -7.025014  1.011801  3.661628
  S    -7.371217 -3.250944  2.325536
  S    -7.695362  0.396245  2.182878
  S    -4.331991 -2.657880 -0.474660
  S    -4.650059  0.711888 -0.487880
  S    -5.104192 -2.282824  3.588027
  S    -5.350715  1.361908  3.531594
