16  
    
  C     3.317648  1.657043  3.264943
  C     3.125656  5.206732  3.406608
  C     1.970581  1.560124  2.709237
  C     1.908701  4.717653  2.845580
  N     4.342056  1.430869  2.445497
  N     4.136818  5.160906  2.541063
  N     1.992567  1.300716  1.404125
  N     1.882214  4.616195  1.511373
  N     1.607215  1.595221  5.205728
  N     1.378625  5.025915  5.264913
  S     0.667139  1.595990  3.844148
  S     0.600062  4.542425  3.889703
  S     3.559872  1.142661  0.975645
  S     3.484870  4.666214  1.128135
  S     3.197258  2.002684  5.025673
  S     3.004890  5.219852  5.172938
