16  
    
  C     2.062529  0.591860  3.232293
  C     2.040045  4.372336  3.062796
  C     0.762537  0.266429  2.666775
  C     0.790387  3.918438  2.461773
  N     3.025125  0.715307  2.299735
  N     3.044253  4.297363  2.196315
  N     0.781376  0.022922  1.351905
  N     0.781068  3.884201  1.134635
  N     0.418058  0.718256  5.171405
  N     0.307741  4.253198  4.977565
  S    -0.500690  0.585500  3.773047
  S    -0.574353  3.965480  3.581597
  S     2.260546  0.352932  0.881563
  S     2.334364  3.908197  0.728378
  S     2.049982  0.858567  4.930199
  S     1.828541  4.747705  4.739535
