16  
    
  C     3.630614  1.731415  3.608492
  C     3.167911  5.184870  3.435172
  C     2.370604  1.301884  3.014985
  C     2.006758  4.655703  2.817478
  N     4.625502  1.945058  2.778322
  N     4.184276  5.558493  2.674542
  N     2.384970  1.288163  1.703336
  N     2.135326  4.557320  1.494245
  N     2.040018  1.267051  5.533176
  N     1.418216  5.139855  5.298247
  S     1.143716  1.175288  4.179565
  S     0.721732  4.416612  3.992074
  S     3.881742  1.727601  1.205684
  S     3.622871  5.144296  1.142207
  S     3.476020  2.075627  5.376127
  S     3.050467  5.382841  5.139684
