16  
    
  C    -4.893692 -2.528679  1.934629
  C    -5.203372  1.018507  1.804917
  C    -6.126955 -2.960999  1.246243
  C    -6.432658  0.547185  1.185378
  N    -3.841900 -2.360817  1.158266
  N    -4.208669  1.243215  0.950446
  N    -5.919299 -3.209654 -0.044524
  N    -6.247779  0.299450 -0.117679
  N    -6.697562 -2.565685  3.646379
  N    -7.054608  1.044301  3.560984
  S    -7.440177 -3.279252  2.305279
  S    -7.877191  0.502494  2.239463
  S    -4.345822 -2.771586 -0.387438
  S    -4.780952  0.792602 -0.531838
  S    -5.063330 -2.338728  3.638923
  S    -5.459113  1.337543  3.484666
