16  
    
  C     2.984863  1.534226  3.439233
  C     2.976649  5.152946  3.207215
  C     1.728832  1.250989  2.770904
  C     1.797758  4.591547  2.606025
  N     3.983324  1.638901  2.552074
  N     4.025939  5.145953  2.398447
  N     1.784632  1.185676  1.442678
  N     1.859181  4.386995  1.282938
  N     1.237843  0.937562  5.246593
  N     1.145332  4.976369  5.089637
  S     0.396754  0.835433  3.771170
  S     0.455277  4.426915  3.665276
  S     3.416243  1.396863  1.073144
  S     3.456038  4.790873  0.873812
  S     2.795907  1.601144  5.177048
  S     2.746115  5.386450  4.975261
