16  
    
  C     1.456128  1.016638  3.316418
  C     1.437554  4.439307  3.365726
  C     0.213678  0.611437  2.743986
  C     0.092569  4.140679  2.896297
  N     2.497010  0.986660  2.488902
  N     2.390455  4.512513  2.445107
  N     0.321676  0.263144  1.495139
  N     0.055068  3.929570  1.569425
  N    -0.285471  0.804655  5.295508
  N    -0.078652  4.636535  5.440793
  S    -1.095294  0.495482  3.890945
  S    -1.069825  4.158383  4.184519
  S     1.900009  0.456941  1.060527
  S     1.553650  4.265258  1.059625
  S     1.369711  1.323639  4.991895
  S     1.554855  4.763167  5.111100
