16  
    
  C    -5.711627 -2.689511  1.520580
  C    -5.530471  0.895945  1.457299
  C    -6.851143 -3.256069  0.813621
  C    -6.716373  0.455865  0.787523
  N    -4.581855 -2.523189  0.857084
  N    -4.592759  1.122793  0.570637
  N    -6.622013 -3.308981 -0.515731
  N    -6.579929  0.241782 -0.524144
  N    -7.553202 -2.924583  3.325072
  N    -7.319574  0.831919  3.305964
  S    -8.346725 -3.223981  1.826005
  S    -8.044296  0.159023  1.883144
  S    -5.031307 -2.796676 -0.775432
  S    -5.035104  0.662362 -0.947296
  S    -5.865928 -2.614128  3.265143
  S    -5.663144  1.042604  3.190694
