16  
    
  C     3.646168  1.944719  3.558390
  C     3.228768  5.358706  3.447367
  C     2.378916  1.514040  2.968349
  C     2.036998  4.808333  2.878064
  N     4.687678  2.143925  2.788053
  N     4.260835  5.512778  2.671797
  N     2.519138  1.317809  1.665824
  N     2.166583  4.650892  1.559067
  N     1.957489  1.413872  5.526890
  N     1.606685  5.018719  5.377204
  S     1.049446  1.243140  4.116785
  S     0.760762  4.470962  3.991517
  S     4.136117  1.717294  1.275807
  S     3.723081  5.175301  1.175681
  S     3.460849  2.168239  5.294709
  S     3.201679  5.359279  5.216323
