16  
    
  C     1.801031  0.486282  3.022056
  C     1.906291  4.195484  3.300912
  C     0.513459  0.158560  2.480936
  C     0.613228  4.011539  2.648279
  N     2.787397  0.715894  2.131858
  N     2.930510  4.333883  2.481448
  N     0.544891  0.055411  1.119844
  N     0.674409  4.106822  1.328424
  N     0.259142  0.278072  5.034765
  N     0.135004  3.946836  5.234911
  S    -0.704634  0.145127  3.691701
  S    -0.717211  3.906074  3.798462
  S     2.046070  0.428853  0.681026
  S     2.261176  4.235758  0.979342
  S     1.815593  0.613076  4.751480
  S     1.815313  4.219153  5.008550
