16  
    
  C     1.810618  0.464601  3.130663
  C     2.047307  4.298880  3.334532
  C     0.553159  0.161270  2.398175
  C     0.723873  4.003443  2.709176
  N     2.835741  0.691557  2.352839
  N     2.996267  4.845737  2.532711
  N     0.698218  0.256426  1.078410
  N     0.857316  4.043252  1.386055
  N    -0.010662  0.060480  4.962575
  N     0.255427  3.994066  5.185984
  S    -0.796941 -0.223990  3.435341
  S    -0.582865  3.689827  3.824368
  S     2.243364  0.644549  0.799394
  S     2.380018  4.583950  1.004468
  S     1.636261  0.592863  4.877576
  S     1.896788  4.385718  5.087966
