16  
    
  C    -4.943160 -2.542728  1.933966
  C    -5.330981  0.957351  1.749021
  C    -6.128299 -3.006432  1.272206
  C    -6.548910  0.520346  1.133915
  N    -3.873147 -2.493358  1.137560
  N    -4.270602  1.139572  0.967165
  N    -5.970296 -3.196697 -0.046567
  N    -6.462237  0.426568 -0.210249
  N    -6.813360 -2.532858  3.727002
  N    -7.189607  1.040178  3.663637
  S    -7.451355 -3.150094  2.323122
  S    -7.870138  0.600027  2.204224
  S    -4.385499 -2.909802 -0.358820
  S    -4.825827  0.836905 -0.588441
  S    -5.123715 -2.322609  3.653723
  S    -5.511075  1.338828  3.452612
