16  
    
  C    -0.229783 -0.432361  2.682920
  C     0.113304  3.314707  2.472614
  C    -1.294852 -0.959975  1.911399
  C    -1.163979  2.986906  1.753066
  N     0.877796 -0.210134  1.970737
  N     1.153000  3.541329  1.691987
  N    -1.131961 -0.954150  0.584989
  N    -0.920179  2.792667  0.468388
  N    -2.089690 -0.769574  4.401179
  N    -1.691764  2.969969  4.246882
  S    -2.627670 -1.401393  2.929020
  S    -2.386339  2.336132  2.851200
  S     0.502855 -0.522031  0.367002
  S     0.600718  3.327606  0.135851
  S    -0.470433 -0.321800  4.449215
  S    -0.170780  3.496564  4.157298
