16  
    
  C    -1.560886 -1.206131  2.704024
  C    -1.693334  2.500867  2.439353
  C    -2.744977 -1.543989  1.890999
  C    -2.930993  2.127314  1.736616
  N    -0.563634 -0.850863  1.938458
  N    -0.668949  2.703708  1.604040
  N    -2.578341 -1.711679  0.597000
  N    -2.802050  2.008071  0.400279
  N    -3.505435 -1.540205  4.458326
  N    -3.559308  2.332727  4.213209
  S    -4.132902 -1.770445  2.901479
  S    -4.381904  2.178626  2.764243
  S    -0.987473 -1.186654  0.346443
  S    -1.221866  2.372229  0.083942
  S    -1.872297 -1.127669  4.434247
  S    -1.938639  2.691925  4.119671
