16  
    
  C     2.024274  1.193037  3.033329
  C     2.237881  4.446492  3.036477
  C     0.802410  0.682596  2.460263
  C     1.086235  3.820891  2.352063
  N     3.038363  1.280645  2.190304
  N     3.319220  4.507143  2.275464
  N     0.910539  0.362543  1.168752
  N     1.245604  3.721517  1.054742
  N     0.235747  1.032014  4.966370
  N     0.287632  4.337045  4.760520
  S    -0.537163  0.520620  3.563008
  S    -0.366926  3.885117  3.260781
  S     2.488408  0.741489  0.700806
  S     2.906781  3.959455  0.732644
  S     1.821060  1.350151  4.754013
  S     1.882951  4.563482  4.730447
