16  
    
  C     1.132763  0.245850  3.109785
  C     1.043484  4.212030  2.587370
  C    -0.090287  0.100640  2.291410
  C    -0.034176  3.530167  1.938609
  N     2.248995  0.299876  2.417379
  N     2.124891  4.364163  1.873990
  N     0.185440 -0.121678  0.990063
  N     0.178035  3.101962  0.699702
  N    -0.812282  0.211825  4.775936
  N    -0.911556  4.132207  4.284039
  S    -1.575635  0.207682  3.319024
  S    -1.431733  3.204268  2.973664
  S     1.840973 -0.003000  0.779200
  S     1.731560  3.594002  0.346876
  S     0.810576  0.453894  4.829890
  S     0.666455  4.597543  4.314380
