16  
    
  C    -0.745164 -0.883552  2.517190
  C    -0.979943  3.086135  2.485663
  C    -2.004887 -1.215819  1.735210
  C    -2.202452  2.850220  1.806699
  N     0.221046 -0.593082  1.699989
  N     0.061743  3.040196  1.671130
  N    -1.886741 -1.297134  0.399741
  N    -2.118255  2.640829  0.497087
  N    -2.617197 -1.144547  4.237710
  N    -2.826866  3.211464  4.332841
  S    -3.319175 -1.569231  2.777791
  S    -3.621899  2.815729  2.881345
  S    -0.313831 -0.766877  0.122897
  S    -0.515110  2.729029  0.157330
  S    -1.103320 -0.535260  4.206165
  S    -1.144436  3.387036  4.148284
