16  
    
  C     1.803322  0.449978  3.137688
  C     1.993060  4.386859  3.345165
  C     0.554470  0.152653  2.414663
  C     0.770720  3.976377  2.689942
  N     2.862697  0.693046  2.382847
  N     2.953884  4.829604  2.560027
  N     0.700827  0.255965  1.091062
  N     0.839539  4.003774  1.389533
  N    -0.033839  0.026594  4.928221
  N     0.277630  4.000355  5.227918
  S    -0.801435 -0.240424  3.443474
  S    -0.557164  3.698317  3.810538
  S     2.273390  0.666872  0.820784
  S     2.397486  4.608179  0.985671
  S     1.620193  0.609576  4.873464
  S     1.909821  4.398080  5.069846
