16  
    
  C    -4.035059 -1.790381  1.618932
  C    -3.848717  1.480289  1.716850
  C    -5.245685 -2.252191  1.048466
  C    -5.184947  1.358870  1.089109
  N    -2.955848 -1.855057  0.869215
  N    -2.885916  1.574423  0.798698
  N    -5.111623 -2.508889 -0.252678
  N    -5.087808  1.075826 -0.216913
  N    -5.780535 -1.928065  3.583669
  N    -5.685741  1.542121  3.650822
  S    -6.537989 -2.263878  2.127237
  S    -6.521232  1.372133  2.219086
  S    -3.494051 -2.316740 -0.619627
  S    -3.480305  1.282622 -0.672692
  S    -4.173288 -1.668490  3.432638
  S    -4.047956  1.687925  3.447083
