16  
    
  C    -0.109030 -0.459473  2.607330
  C     0.058599  3.538646  2.335593
  C    -1.410841 -0.618031  2.089344
  C    -1.222799  3.114164  1.700716
  N     0.880966 -0.341357  1.756269
  N     1.115245  3.631353  1.506661
  N    -1.422822 -0.641114  0.788340
  N    -1.161061  3.298907  0.344301
  N    -1.829749 -0.392449  4.528721
  N    -1.633262  3.493885  4.298520
  S    -2.740630 -0.694160  3.167187
  S    -2.463450  3.049678  2.903674
  S     0.134810 -0.370520  0.230429
  S     0.435020  3.441585 -0.024600
  S    -0.220647 -0.141369  4.272397
  S     0.004863  3.781759  4.061289
