16  
    
  C     1.167774  0.233156  3.076304
  C     0.517475  3.721506  3.095298
  C    -0.080355 -0.126437  2.325780
  C    -0.533703  3.221837  2.227924
  N     2.220431  0.360055  2.281636
  N     1.583569  4.163970  2.447405
  N     0.096841 -0.281951  1.031854
  N    -0.139761  2.994568  0.959157
  N    -0.741468 -0.034263  4.792085
  N    -1.373421  3.088548  4.629856
  S    -1.481379 -0.305947  3.339818
  S    -1.877451  2.524983  3.117035
  S     1.711907  0.032929  0.710856
  S     1.319976  3.859102  0.827205
  S     0.888157  0.428672  4.770465
  S     0.094974  3.806689  4.733505
