16  
    
  C     2.965412  1.523022  3.440707
  C     2.893451  5.126971  3.187017
  C     1.784795  0.886758  2.890212
  C     1.683886  4.524020  2.635974
  N     3.928899  1.869574  2.599607
  N     3.821471  5.426036  2.291833
  N     1.857820  0.718071  1.586215
  N     1.841818  4.186583  1.356794
  N     1.138032  1.471172  5.229731
  N     1.264176  4.845458  5.181405
  S     0.457437  0.694040  3.958297
  S     0.549468  4.166518  3.886189
  S     3.269951  1.293604  1.085342
  S     3.285322  4.850587  0.839860
  S     2.782101  1.752083  5.183821
  S     2.782924  5.476374  4.894269
