16  
    
  C    -0.773794 -0.894897  2.479358
  C    -0.965438  3.054040  2.482066
  C    -1.972836 -1.292982  1.736604
  C    -2.200111  2.930206  1.824290
  N     0.257941 -0.641431  1.707723
  N     0.100158  3.028908  1.661082
  N    -1.899029 -1.287715  0.432642
  N    -2.109626  2.613810  0.523098
  N    -2.638675 -1.124413  4.243619
  N    -2.802108  3.192770  4.328358
  S    -3.300830 -1.575455  2.767001
  S    -3.595257  2.773153  2.887607
  S    -0.295530 -0.792917  0.111257
  S    -0.511116  2.752807  0.149605
  S    -1.096922 -0.528469  4.211906
  S    -1.119066  3.394854  4.160733
