16  
    
  C    -5.430051 -2.723525  1.542586
  C    -5.521517  1.040117  1.350721
  C    -6.659708 -3.016365  0.868652
  C    -6.669426  0.410881  0.642150
  N    -4.374163 -2.716982  0.701672
  N    -4.500450  1.293370  0.550093
  N    -6.498947 -3.170483 -0.429677
  N    -6.568630  0.357982 -0.711896
  N    -7.206810 -3.267624  3.386766
  N    -7.225864  0.486360  3.179688
  S    -8.015236 -3.483932  1.932798
  S    -8.001254  0.096177  1.786944
  S    -4.909714 -3.037628 -0.823377
  S    -4.984106  0.890514 -1.006517
  S    -5.663542 -2.550755  3.329950
  S    -5.708509  1.212928  3.117201
