16  
    
  C     3.157620  1.560646  3.277472
  C     3.092033  4.888844  3.400386
  C     1.876381  1.262628  2.718937
  C     1.833473  4.697940  2.670146
  N     4.188386  1.639069  2.421850
  N     4.163676  5.120626  2.647174
  N     1.966960  1.036791  1.425034
  N     2.021666  4.610083  1.361267
  N     1.358716  1.629430  5.160831
  N     1.242408  5.003286  5.170465
  S     0.524969  1.480037  3.758835
  S     0.493549  4.655808  3.752085
  S     3.551507  1.228789  0.915487
  S     3.662403  4.871749  1.069785
  S     3.004021  1.829477  5.017282
  S     2.873443  5.271639  5.066222
