16  
    
  C     3.639908  1.662595  3.633012
  C     3.182050  5.218277  3.446481
  C     2.368578  1.292663  3.037507
  C     2.038417  4.519170  2.832723
  N     4.563053  1.910745  2.714557
  N     4.122335  5.520253  2.562952
  N     2.262458  1.231325  1.682356
  N     2.066694  4.570650  1.482336
  N     2.023810  1.295894  5.613882
  N     1.351330  5.162917  5.277549
  S     1.145318  1.100691  4.227045
  S     0.687779  4.379718  3.963390
  S     3.814942  1.709715  1.215411
  S     3.619660  5.106980  1.061803
  S     3.521567  1.980073  5.374483
  S     2.949417  5.412566  5.207214
