16  
    
  C    -3.958732 -1.925297  1.744750
  C    -3.710284  1.785718  1.796004
  C    -5.133791 -2.331349  1.027552
  C    -5.001529  1.352827  1.203807
  N    -2.952020 -1.675210  0.928027
  N    -2.692591  1.861156  0.925701
  N    -4.965640 -2.627520 -0.246482
  N    -4.953173  1.370249 -0.108205
  N    -5.837424 -1.913158  3.535908
  N    -5.500355  1.604251  3.732903
  S    -6.512372 -2.482652  2.118073
  S    -6.319483  1.145127  2.349809
  S    -3.375198 -2.135336 -0.609300
  S    -3.342468  1.648936 -0.619926
  S    -4.273479 -1.501075  3.375434
  S    -3.854527  1.742743  3.570921
