16  
    
  C    -2.181282 -0.937301  2.287865
  C    -2.063377  2.452976  1.990079
  C    -3.412696 -1.171009  1.599908
  C    -3.314507  1.948518  1.400440
  N    -1.128381 -0.781668  1.495726
  N    -1.056261  2.504069  1.130172
  N    -3.240025 -1.574639  0.335298
  N    -3.266381  1.763092  0.088510
  N    -3.889754 -1.212934  4.189924
  N    -3.823788  2.360097  3.894386
  S    -4.756002 -1.240812  2.748322
  S    -4.662274  1.907021  2.513113
  S    -1.592656 -1.326963  0.001345
  S    -1.724067  2.081042 -0.367193
  S    -2.309356 -0.687988  4.023351
  S    -2.186596  2.534622  3.661189
