16  
    
  C    -3.874371 -2.448963  1.624789
  C    -3.405791  1.731068  1.554107
  C    -5.159364 -2.308244  0.969573
  C    -4.578543  1.043107  1.055101
  N    -2.817747 -2.234263  0.795503
  N    -2.413532  1.956127  0.689887
  N    -5.079729 -2.164153 -0.359313
  N    -4.486954  0.991415 -0.272055
  N    -5.567371 -2.480561  3.478625
  N    -5.096752  1.522934  3.457299
  S    -6.411440 -2.757808  2.073608
  S    -5.918197  0.953793  2.124084
  S    -3.496289 -2.039873 -0.689262
  S    -3.027109  1.563798 -0.748060
  S    -3.920939 -2.593965  3.341780
  S    -3.571958  2.184233  3.240772
