16  
    
  C    -1.418415 -1.149919  2.205309
  C    -1.726693  2.340537  1.968140
  C    -2.675373 -1.386456  1.591987
  C    -3.035752  2.095681  1.314274
  N    -0.431662 -1.288686  1.304482
  N    -0.760457  2.341702  1.093836
  N    -2.682145 -1.446246  0.240026
  N    -3.012058  1.978548 -0.001873
  N    -3.209389 -1.074743  4.078001
  N    -3.400744  2.218128  3.883872
  S    -4.068996 -1.179477  2.661882
  S    -4.249225  1.835838  2.535469
  S    -1.099475 -1.491082 -0.197295
  S    -1.436635  2.251157 -0.422614
  S    -1.569699 -0.803651  3.910874
  S    -1.787547  2.562750  3.655585
