16  
    
  C     2.142231  1.291369  3.428687
  C     2.261830  4.668103  3.236381
  C     0.973805  0.831612  2.719359
  C     1.030983  4.267181  2.554264
  N     3.168169  1.576007  2.664350
  N     3.278158  4.933774  2.446244
  N     1.130844  0.642563  1.411159
  N     1.002571  4.446782  1.239124
  N     0.539980  0.756838  5.267069
  N     0.600148  4.241606  5.147248
  S    -0.305705  0.486900  3.848734
  S    -0.181578  3.860889  3.709391
  S     2.763699  1.121323  1.121838
  S     2.615127  4.867621  0.936523
  S     2.126491  1.096969  5.125805
  S     2.239407  4.755299  4.950477
