16  
    
  C     3.210353  1.484980  3.635102
  C     3.237870  4.936159  3.469693
  C     1.920194  1.318253  3.016496
  C     1.967034  4.821481  2.818960
  N     4.260792  1.452171  2.821441
  N     4.282993  5.010061  2.640884
  N     2.027593  1.266004  1.692053
  N     2.061729  4.472278  1.528175
  N     1.517834  1.228830  5.605791
  N     1.353420  5.156761  5.297543
  S     0.659837  1.284744  4.177828
  S     0.596348  4.742851  3.845356
  S     3.663977  1.344547  1.345937
  S     3.672507  4.768004  1.117480
  S     3.094621  1.760022  5.390942
  S     2.998613  5.220098  5.209748
