16  
    
  C     1.092037 -0.004299  2.960410
  C     0.899106  3.853759  2.877548
  C    -0.263614 -0.346493  2.458452
  C    -0.380867  3.520027  2.312566
  N     2.007966  0.159781  1.973520
  N     1.893654  3.876391  1.949580
  N    -0.293163 -0.433009  1.143070
  N    -0.328871  3.019197  1.044328
  N    -0.487122 -0.109685  4.958066
  N    -0.683108  4.021565  4.877468
  S    -1.480010 -0.520515  3.693545
  S    -1.562450  3.353345  3.618010
  S     1.182423 -0.084713  0.549445
  S     1.215444  3.319329  0.531270
  S     1.136636  0.233735  4.689310
  S     0.935224  4.366074  4.542558
