16  
    
  C    -2.708410 -1.532998  2.145354
  C    -2.556410  2.400956  2.224863
  C    -3.973901 -1.809476  1.533534
  C    -3.782096  1.886053  1.574380
  N    -1.706548 -1.205874  1.301218
  N    -1.516410  2.649326  1.438830
  N    -3.824207 -1.978030  0.209617
  N    -3.619106  1.844742  0.259079
  N    -4.430278 -1.472823  4.076746
  N    -4.252024  1.873906  4.102185
  S    -5.261390 -2.071194  2.744797
  S    -5.077765  1.670619  2.655359
  S    -2.226346 -1.547522 -0.206011
  S    -2.040825  2.313047 -0.076566
  S    -2.772979 -1.332990  3.854648
  S    -2.646479  2.397173  3.957651
