16  
    
  C     0.718584 -0.288362  2.764877
  C     0.356519  3.554014  2.908826
  C    -0.609230 -0.389779  2.177652
  C    -0.871986  3.233983  2.250892
  N     1.701968 -0.088716  1.911428
  N     1.424912  3.802684  2.156225
  N    -0.612921 -0.375248  0.845902
  N    -0.815005  3.529745  0.953995
  N    -0.968295 -0.392013  4.783488
  N    -1.410364  3.116579  4.740042
  S    -1.820201 -0.649662  3.391726
  S    -2.209343  2.884310  3.347700
  S     0.998045 -0.107411  0.392935
  S     0.828779  3.827061  0.602410
  S     0.646664 -0.050108  4.535190
  S     0.251501  3.405575  4.628496
