16  
    
  C    -1.410328 -0.997668  2.448084
  C    -1.499505  2.806426  2.134638
  C    -2.498920 -1.475681  1.572554
  C    -2.544238  2.047723  1.464311
  N    -0.391039 -0.639477  1.713520
  N    -0.508354  3.129184  1.322795
  N    -2.220527 -1.585279  0.293530
  N    -2.234838  1.646527  0.241936
  N    -3.380938 -1.443170  4.057115
  N    -3.382909  2.445760  3.846789
  S    -3.939911 -1.763026  2.472609
  S    -3.927560  1.639522  2.502454
  S    -0.693879 -1.054395  0.168477
  S    -0.817309  2.402701 -0.167964
  S    -1.748399 -0.967591  4.130073
  S    -1.844091  3.028989  3.789454
