16  
    
  C    -1.827902 -0.890117  2.334706
  C    -1.877335  2.413050  2.587371
  C    -3.125251 -1.289742  1.825556
  C    -3.070618  2.047002  1.893555
  N    -0.834764 -0.963052  1.445897
  N    -0.833625  2.718867  1.826937
  N    -3.073084 -1.571421  0.530292
  N    -2.865695  1.869735  0.596936
  N    -3.409516 -1.240939  4.306910
  N    -3.725968  2.091203  4.381296
  S    -4.349153 -1.419769  2.964331
  S    -4.441111  1.634982  2.940115
  S    -1.528872 -1.357316  0.035819
  S    -1.296139  2.227611  0.303355
  S    -1.833925 -0.754627  4.066869
  S    -2.128085  2.503377  4.316690
