16  
    
  C     0.053273 -0.607548  2.438352
  C    -0.195841  3.136776  2.622863
  C    -1.246991 -0.888969  1.837475
  C    -1.452057  2.759709  2.030224
  N     1.058596 -0.561198  1.548029
  N     0.810283  3.360489  1.765483
  N    -1.168202 -1.040148  0.504871
  N    -1.353740  2.431648  0.758667
  N    -1.663217 -0.824032  4.414050
  N    -1.910921  2.860710  4.508582
  S    -2.468751 -1.271898  3.013236
  S    -2.646008  2.255291  3.181724
  S     0.370242 -0.865345  0.082870
  S     0.163285  2.936361  0.274004
  S    -0.116278 -0.392520  4.141998
  S    -0.410992  3.479151  4.343828
