16  
    
  C    -0.106439 -0.469979  2.609363
  C     0.057492  3.535857  2.328696
  C    -1.412463 -0.612117  2.093399
  C    -1.219011  3.117283  1.703606
  N     0.879907 -0.335594  1.748932
  N     1.111034  3.637378  1.507742
  N    -1.423576 -0.646355  0.786270
  N    -1.159602  3.295098  0.351078
  N    -1.827361 -0.392214  4.524984
  N    -1.641596  3.494876  4.300454
  S    -2.740073 -0.692804  3.168920
  S    -2.466470  3.050328  2.906922
  S     0.129224 -0.367877  0.230910
  S     0.434328  3.436376 -0.021627
  S    -0.215463 -0.137657  4.268581
  S     0.002737  3.788426  4.058357
