16  
    
  C    -1.453021 -1.178477  2.597104
  C    -1.463208  2.699824  2.319066
  C    -2.560376 -1.537386  1.735276
  C    -2.549375  1.965839  1.612916
  N    -0.343869 -0.809832  1.911946
  N    -0.363380  2.820013  1.565430
  N    -2.268928 -1.652502  0.400824
  N    -2.365363  1.805237  0.298279
  N    -3.399985 -1.588043  4.169473
  N    -3.441203  2.455468  4.015964
  S    -3.939544 -1.951304  2.625063
  S    -4.017592  1.751218  2.599548
  S    -0.671117 -1.128289  0.312117
  S    -0.800467  2.324147  0.032451
  S    -1.831508 -0.964478  4.270466
  S    -1.882727  3.027507  3.928998
