16  
    
  C     3.228126  1.635300  3.610067
  C     3.096079  5.154868  3.380031
  C     2.017784  1.136243  3.027399
  C     1.999412  4.529713  2.729625
  N     4.270589  1.630878  2.757208
  N     4.170564  5.349897  2.627040
  N     2.092193  0.832916  1.731895
  N     2.171725  4.332812  1.455890
  N     1.476867  1.462516  5.498754
  N     1.255150  4.913358  5.156613
  S     0.702515  1.012358  4.106692
  S     0.657443  4.193200  3.768204
  S     3.678744  1.086530  1.361976
  S     3.697708  4.970395  1.131819
  S     2.999736  2.058793  5.321589
  S     2.854982  5.357478  5.066530
