16  
    
  C    -4.002047 -2.126777  1.704315
  C    -4.012811  1.501187  1.710807
  C    -5.324109 -2.393195  1.162109
  C    -5.286915  1.307108  1.018254
  N    -2.945381 -2.095390  0.847802
  N    -2.986108  1.449216  0.875913
  N    -5.262940 -2.415477 -0.160634
  N    -5.174512  1.109161 -0.284724
  N    -5.720761 -1.786216  3.598249
  N    -5.761628  1.597673  3.464771
  S    -6.652711 -2.281860  2.284213
  S    -6.638217  1.335624  2.097811
  S    -3.706773 -2.248947 -0.635987
  S    -3.581315  1.147322 -0.611495
  S    -4.085708 -1.756932  3.426898
  S    -4.087947  1.669001  3.402285
