16  
    
  C     1.459400  1.014191  3.315283
  C     1.435891  4.375017  3.387354
  C     0.230637  0.603293  2.758031
  C     0.109871  4.168709  2.895758
  N     2.489406  0.997405  2.472491
  N     2.380035  4.506691  2.443553
  N     0.328820  0.247263  1.490050
  N     0.057076  3.937470  1.577634
  N    -0.276281  0.803453  5.291733
  N    -0.059874  4.647980  5.428581
  S    -1.088844  0.509054  3.879457
  S    -1.048866  4.163082  4.182647
  S     1.900539  0.476679  1.047392
  S     1.576962  4.251468  1.065458
  S     1.352224  1.321770  4.980419
  S     1.540474  4.778216  5.119931
