16  
    
  C    -0.143032  0.014366  2.569558
  C    -0.078436  3.714543  2.475896
  C    -1.387259 -0.438628  2.005559
  C    -1.225782  2.966471  1.940884
  N     0.788756  0.302973  1.638464
  N     0.972055  3.785687  1.688038
  N    -1.290992 -0.799601  0.694960
  N    -0.971422  2.579330  0.705475
  N    -1.592980 -0.413724  4.606468
  N    -1.762671  3.483259  4.429634
  S    -2.516444 -0.782228  3.266399
  S    -2.513172  2.767301  3.072230
  S     0.210357 -0.299835  0.247603
  S     0.520475  3.203661  0.222042
  S    -0.065368  0.180598  4.333469
  S    -0.213584  4.065147  4.156377
