16  
    
  C     2.844682  1.532273  3.540749
  C     2.978785  5.150784  3.394913
  C     1.624460  0.897833  3.061636
  C     1.752277  4.722729  2.789545
  N     3.787309  1.669699  2.619037
  N     3.889842  5.631402  2.549798
  N     1.662243  0.558584  1.768206
  N     1.839075  4.631873  1.472498
  N     1.137529  1.387415  5.512753
  N     1.112036  5.062118  5.274462
  S     0.394475  0.635829  4.215227
  S     0.424758  4.327933  3.900941
  S     3.162281  1.029293  1.216105
  S     3.392953  5.187026  1.019484
  S     2.691146  1.897067  5.312238
  S     2.703831  5.383295  5.177781
