16  
    
  C    -4.317695 -1.726619  1.939559
  C    -4.170266  1.556938  1.878249
  C    -5.463539 -2.374742  1.339482
  C    -5.460452  1.104565  1.333363
  N    -3.265066 -1.726166  1.134054
  N    -3.167014  1.668110  0.990465
  N    -5.309209 -2.729964  0.065876
  N    -5.336295  0.713107  0.063574
  N    -5.952531 -2.188373  3.769072
  N    -5.825608  1.628867  3.830175
  S    -6.893738 -2.320479  2.398584
  S    -6.644107  0.956416  2.575955
  S    -3.763626 -2.343714 -0.339302
  S    -3.795506  1.040806 -0.488279
  S    -4.412460 -1.530712  3.635391
  S    -4.224908  1.872647  3.656873
