16  
    
  C    -3.203181 -2.141921  1.940167
  C    -3.770960  1.889306  1.984622
  C    -4.405330 -2.593157  1.296996
  C    -4.716824  1.049478  1.346256
  N    -2.197834 -1.962484  1.097796
  N    -2.729556  2.192124  1.222771
  N    -4.261242 -2.854313 -0.012769
  N    -4.366954  0.768698  0.105424
  N    -5.082923 -2.220112  3.697028
  N    -5.610576  1.496680  3.650793
  S    -5.747917 -2.882240  2.349675
  S    -6.063553  0.613126  2.257310
  S    -2.716359 -2.475591 -0.406368
  S    -2.957783  1.570866 -0.233705
  S    -3.584346 -1.554868  3.490811
  S    -4.095930  2.207216  3.682560
