16  
    
  C    -3.544334 -2.523293  1.900793
  C    -3.655246  1.881079  1.870743
  C    -4.657974 -3.088636  1.209302
  C    -4.666461  1.027519  1.236187
  N    -2.430237 -2.425040  1.150299
  N    -2.720277  2.237569  0.988096
  N    -4.549703 -3.122714 -0.147319
  N    -4.368124  0.653863 -0.007664
  N    -5.463356 -2.557140  3.674930
  N    -5.379324  1.488986  3.669875
  S    -6.032720 -3.339960  2.336092
  S    -5.946051  0.603400  2.337302
  S    -2.954813 -2.715328 -0.426379
  S    -2.989325  1.473316 -0.429739
  S    -3.841588 -2.225925  3.565942
  S    -3.882233  2.248754  3.541619
