16  
    
  C    -2.872876 -1.540744  1.994974
  C    -2.413311  1.965227  2.055504
  C    -4.082837 -2.045122  1.412923
  C    -3.702608  1.821631  1.424745
  N    -1.874008 -1.372688  1.158587
  N    -1.437554  1.877499  1.171323
  N    -4.048830 -2.141633  0.104431
  N    -3.695887  1.655229  0.089529
  N    -4.444017 -2.035511  3.976924
  N    -4.072490  2.241323  3.994997
  S    -5.338784 -2.502728  2.600828
  S    -4.955673  2.121248  2.607183
  S    -2.559050 -1.659361 -0.338389
  S    -2.078113  1.668509 -0.331982
  S    -2.864020 -1.580285  3.698907
  S    -2.424020  2.384432  3.745724
