16  
    
  C    -4.727318 -2.618793  1.645113
  C    -4.873310  1.285524  1.461552
  C    -5.964611 -3.034532  1.083711
  C    -5.964573  0.659242  0.832594
  N    -3.799897 -2.310970  0.739103
  N    -3.781237  1.380927  0.691015
  N    -5.949568 -3.213153 -0.241656
  N    -5.771465  0.498410 -0.480196
  N    -6.322664 -2.787221  3.672697
  N    -6.587031  0.756806  3.344681
  S    -7.208676 -2.987427  2.307286
  S    -7.248673  0.301552  1.901454
  S    -4.430486 -2.730340 -0.748665
  S    -4.226629  0.844698 -0.763877
  S    -4.759547 -2.188349  3.345290
  S    -4.959259  1.244079  3.202778
