16  
    
  C    -2.082383 -0.966435  1.988562
  C    -2.627320  2.623697  2.124840
  C    -3.123012 -1.770279  1.459276
  C    -3.850802  2.107878  1.490577
  N    -1.085923 -0.764304  1.118228
  N    -1.665445  2.799545  1.212713
  N    -3.066823 -1.949848  0.144154
  N    -3.745348  1.772626  0.193206
  N    -3.513776 -1.881928  3.963902
  N    -4.313677  2.483383  4.010596
  S    -4.395073 -2.201981  2.580685
  S    -5.101935  1.872945  2.681387
  S    -1.642846 -1.265663 -0.369033
  S    -2.167723  2.172227 -0.215790
  S    -2.229422 -0.913956  3.748181
  S    -2.737666  2.860523  3.838387
