16  
    
  C     0.762453  0.347068  2.902750
  C     0.597636  3.795594  2.766623
  C    -0.495456 -0.206889  2.370936
  C    -0.667456  3.280757  2.175942
  N     1.718771  0.557973  2.015662
  N     1.593833  3.882222  1.903778
  N    -0.445452 -0.472077  1.067531
  N    -0.639434  3.261475  0.834068
  N    -0.950737  0.215774  4.903432
  N    -0.976587  3.427345  4.757076
  S    -1.804259 -0.167345  3.530928
  S    -1.825093  3.226215  3.366789
  S     1.088991  0.031296  0.558850
  S     0.917607  3.746154  0.379669
  S     0.621021  0.520829  4.641318
  S     0.699275  3.585982  4.503427
