16  
    
  C    -4.204944 -2.113220  2.089484
  C    -4.171053  1.445807  1.881878
  C    -5.507279 -2.294057  1.495265
  C    -5.437109  1.087820  1.269017
  N    -3.242614 -2.002449  1.195713
  N    -3.110431  1.376982  1.043329
  N    -5.517179 -2.432150  0.148115
  N    -5.337571  1.041038 -0.076906
  N    -5.961544 -1.965843  3.961783
  N    -5.951982  1.390406  3.851783
  S    -6.843979 -2.498384  2.638292
  S    -6.745524  1.092590  2.399047
  S    -3.924909 -2.186405 -0.285927
  S    -3.694944  1.187591 -0.463199
  S    -4.272557 -1.767379  3.793974
  S    -4.335442  1.665059  3.699362
