16  
    
  C    -2.894566 -1.654132  2.002459
  C    -2.410519  1.988163  2.021398
  C    -4.197865 -1.971059  1.430236
  C    -3.714047  1.756185  1.448038
  N    -1.893015 -1.345457  1.163772
  N    -1.356654  1.836153  1.210207
  N    -4.073876 -2.150506  0.092740
  N    -3.647632  1.677437  0.107468
  N    -4.374529 -2.042331  4.033624
  N    -4.097269  2.276013  4.036831
  S    -5.294373 -2.427748  2.637047
  S    -4.956851  2.114524  2.633599
  S    -2.512657 -1.697332 -0.317253
  S    -2.062854  1.744493 -0.335859
  S    -2.833614 -1.557806  3.702735
  S    -2.430057  2.371689  3.718453
