16  
    
  C    -5.755664 -2.861294  1.207759
  C    -5.787352  0.825894  1.587170
  C    -6.892688 -3.514242  0.658552
  C    -6.973879  0.318886  0.899996
  N    -4.908153 -2.458361  0.256828
  N    -4.779762  1.193244  0.764116
  N    -6.883465 -3.643220 -0.647926
  N    -6.824097  0.151970 -0.431389
  N    -7.431212 -3.115009  3.170943
  N    -7.660399  0.691132  3.429306
  S    -8.106628 -3.796804  1.836685
  S    -8.269969 -0.020598  2.012114
  S    -5.480811 -2.959899 -1.163579
  S    -5.297952  0.723249 -0.757169
  S    -5.828166 -2.775762  2.930590
  S    -6.013034  1.018276  3.319168
