16  
    
  C     3.177175  1.643617  3.694320
  C     3.207456  5.105407  3.422948
  C     1.999077  1.115513  3.020761
  C     2.025903  4.672912  2.707765
  N     4.253931  1.762483  2.917985
  N     4.202993  5.391692  2.581954
  N     2.151365  0.767879  1.742570
  N     2.172880  4.453162  1.416097
  N     1.356157  1.472508  5.513535
  N     1.328952  4.712593  5.197666
  S     0.591970  1.088609  4.080486
  S     0.642243  4.300093  3.744052
  S     3.733652  1.159953  1.349885
  S     3.707646  4.824172  1.065564
  S     2.953570  2.028380  5.356582
  S     2.905147  5.374277  5.184617
