16  
    
  C     0.752499  0.360122  2.908670
  C     0.610730  3.783307  2.775283
  C    -0.514274 -0.213284  2.376581
  C    -0.654727  3.282437  2.176803
  N     1.707785  0.547374  2.027291
  N     1.591645  3.901468  1.919081
  N    -0.448168 -0.457789  1.071992
  N    -0.644191  3.264759  0.841647
  N    -0.955230  0.224595  4.905473
  N    -0.967179  3.442295  4.768536
  S    -1.812414 -0.157669  3.525154
  S    -1.821820  3.230271  3.362754
  S     1.083607  0.025985  0.566345
  S     0.920696  3.742361  0.379509
  S     0.628348  0.515250  4.651757
  S     0.694938  3.601122  4.507481
