16  
    
  C    -2.665447 -1.887664  2.004501
  C    -2.961552  2.212191  1.815270
  C    -3.899626 -2.035012  1.259096
  C    -4.027358  1.543748  1.110134
  N    -1.637414 -1.858229  1.182514
  N    -1.953608  2.584486  1.036462
  N    -3.797562 -2.201093 -0.055857
  N    -3.894499  1.536139 -0.200165
  N    -4.499900 -1.843520  3.806387
  N    -4.837305  1.692220  3.617465
  S    -5.246928 -2.070622  2.309762
  S    -5.476217  1.362760  2.094675
  S    -2.129713 -2.187954 -0.354359
  S    -2.430293  2.311598 -0.524792
  S    -2.857749 -1.747534  3.717903
  S    -3.278001  2.321046  3.511179
