16  
    
  C    -5.883322 -3.154253  1.423428
  C    -6.017246  0.897193  1.344361
  C    -7.083674 -3.346067  0.623307
  C    -7.241972  0.481598  0.663013
  N    -4.767899 -2.903932  0.727479
  N    -4.968085  1.131099  0.557297
  N    -6.772651 -3.537282 -0.655750
  N    -7.168393  0.462715 -0.676524
  N    -7.718904 -3.282292  3.126771
  N    -7.733823  0.259727  3.202139
  S    -8.506815 -3.433766  1.638100
  S    -8.605062  0.157645  1.761830
  S    -5.152545 -3.250508 -0.792231
  S    -5.569194  0.815540 -0.999711
  S    -6.090144 -2.953890  3.119294
  S    -6.157230  0.686917  3.062345
