16  
    
  C    -1.525352 -1.122828  2.655541
  C    -1.570183  2.684480  2.398300
  C    -2.581913 -1.623465  1.832775
  C    -2.712329  2.245236  1.689267
  N    -0.406751 -0.943433  2.009312
  N    -0.498380  2.785601  1.638165
  N    -2.313184 -1.608585  0.540727
  N    -2.520854  1.934460  0.412199
  N    -3.429901 -1.573312  4.285823
  N    -3.527260  2.491097  4.103047
  S    -4.006739 -1.940804  2.803360
  S    -4.180698  1.986003  2.651269
  S    -0.701245 -1.192719  0.422196
  S    -0.924844  2.205306  0.118082
  S    -1.837883 -1.147629  4.408455
  S    -1.914725  2.913298  4.059965
