16  
    
  C    -0.994522 -0.699934  2.226889
  C    -0.778979  2.951744  2.496284
  C    -2.173307 -1.388778  1.691292
  C    -1.967819  2.555835  1.860045
  N     0.101583 -0.698204  1.456167
  N     0.277237  2.962188  1.720092
  N    -2.017534 -1.686349  0.395768
  N    -1.861635  2.461076  0.551463
  N    -2.887545 -0.656888  4.049794
  N    -2.470060  2.815236  4.346615
  S    -3.532712 -1.601205  2.781540
  S    -3.301251  2.418981  3.016392
  S    -0.404011 -1.332019  0.003999
  S    -0.260752  2.731206  0.199882
  S    -1.272822 -0.259169  3.855592
  S    -0.926585  3.275453  4.199581
