16  
    
  C     0.862363  0.233303  2.856690
  C     0.527337  3.680667  2.940792
  C    -0.329650 -0.315112  2.264322
  C    -0.777458  3.478942  2.413891
  N     1.909683  0.362343  2.015483
  N     1.487897  3.937187  2.027770
  N    -0.285989 -0.480779  0.939131
  N    -0.894297  3.751735  1.124588
  N    -0.858532  0.051333  4.830169
  N    -1.109981  3.367104  4.938887
  S    -1.669722 -0.171729  3.405857
  S    -2.096622  3.337108  3.569530
  S     1.299540 -0.051099  0.500871
  S     0.711784  3.865539  0.550667
  S     0.728534  0.379158  4.653638
  S     0.516734  3.434515  4.676050
