16  
    
  C     2.012127  1.146798  3.068976
  C     2.187261  4.314374  2.991001
  C     0.782160  0.709312  2.451871
  C     1.028218  3.933339  2.287020
  N     3.086733  1.229750  2.241444
  N     3.247737  4.569151  2.212132
  N     0.940320  0.503778  1.139425
  N     1.292883  3.595233  0.994185
  N     0.287549  0.926399  4.940031
  N     0.255522  4.253339  4.817451
  S    -0.536907  0.473794  3.659894
  S    -0.398684  3.899780  3.293825
  S     2.486100  0.783835  0.778800
  S     2.857003  4.021641  0.708428
  S     1.862142  1.410745  4.793906
  S     1.976676  4.561227  4.749430
