16  
    
  C     2.994385  1.559061  3.452976
  C     2.926872  5.115188  3.197798
  C     1.796623  0.903054  2.942455
  C     1.708877  4.557798  2.671109
  N     3.921512  1.857231  2.534002
  N     3.816211  5.499695  2.247247
  N     1.825735  0.701670  1.632672
  N     1.812275  4.208980  1.378831
  N     1.133238  1.473982  5.264354
  N     1.289191  4.796629  5.252614
  S     0.475696  0.671237  3.968385
  S     0.553307  4.162980  3.881736
  S     3.266248  1.249245  1.109465
  S     3.292256  4.843446  0.823848
  S     2.755097  1.788496  5.171572
  S     2.751750  5.476344  4.914769
