16  
    
  C    -3.883854 -2.405147  1.610259
  C    -3.432289  1.740149  1.571850
  C    -5.190560 -2.337708  0.985840
  C    -4.552966  1.078225  1.042673
  N    -2.846129 -2.220836  0.793579
  N    -2.444548  1.966735  0.682070
  N    -5.085409 -2.181649 -0.346466
  N    -4.509128  1.004054 -0.289755
  N    -5.578049 -2.442054  3.467633
  N    -5.098630  1.542110  3.452277
  S    -6.395423 -2.755998  2.075594
  S    -5.924150  0.954508  2.141959
  S    -3.498110 -2.034569 -0.672112
  S    -3.027796  1.590023 -0.759193
  S    -3.921008 -2.593610  3.338159
  S    -3.585216  2.180251  3.257523
