16  
    
  C     2.346981  0.940204  3.453508
  C     1.941448  4.861140  3.000104
  C     1.053432  0.645688  2.868586
  C     0.867605  4.148610  2.331610
  N     3.360564  0.997404  2.579401
  N     2.942891  5.140453  2.177707
  N     1.098723  0.449958  1.545737
  N     1.034805  4.026739  1.015488
  N     0.641770  0.831823  5.437249
  N     0.264094  4.337534  4.869490
  S    -0.296413  0.647515  4.041913
  S    -0.558597  4.107179  3.428455
  S     2.651786  0.634589  1.075219
  S     2.540229  4.634936  0.660225
  S     2.246953  1.018895  5.234314
  S     1.787011  5.071647  4.785481
