16  
    
  C     3.175859  1.640555  3.633844
  C     3.228213  5.102684  3.397151
  C     1.966556  1.079534  3.037777
  C     1.965231  4.727200  2.730711
  N     4.279165  1.781657  2.893430
  N     4.235109  5.360492  2.531795
  N     2.189241  0.765718  1.763585
  N     2.171108  4.459702  1.417106
  N     1.316794  1.521204  5.536224
  N     1.326292  4.710727  5.245200
  S     0.531245  1.105388  4.095808
  S     0.659469  4.354212  3.777277
  S     3.763305  1.219309  1.381452
  S     3.747310  4.810244  1.067058
  S     2.944515  1.979436  5.368594
  S     2.893541  5.349952  5.175293
