16  
    
  C    -2.515331 -1.888180  1.944546
  C    -3.106377  2.133738  1.725703
  C    -3.774261 -2.160038  1.311862
  C    -4.259956  1.652029  0.984740
  N    -1.516941 -1.974302  1.085591
  N    -2.052299  2.487224  0.948995
  N    -3.814730 -2.216678 -0.022329
  N    -4.018480  1.441764 -0.309968
  N    -4.255955 -1.698467  3.841555
  N    -4.999493  1.601440  3.470206
  S    -5.079486 -1.817612  2.403167
  S    -5.466941  0.962728  2.056666
  S    -2.242990 -2.183452 -0.440748
  S    -2.484262  1.969285 -0.618288
  S    -2.643508 -1.570363  3.691024
  S    -3.465421  2.213614  3.434976
