16  
    
  C     2.296240  0.742336  3.535562
  C     1.872914  5.045119  3.164707
  C     0.997443  0.618742  2.919659
  C     0.785420  4.567490  2.321780
  N     3.306404  0.729367  2.660682
  N     2.919608  5.371909  2.404921
  N     1.059130  0.606591  1.572156
  N     1.100152  4.282100  1.056037
  N     0.650563  1.083610  5.450918
  N    -0.035053  4.828224  4.822896
  S    -0.278828  0.530462  4.193601
  S    -0.564050  4.088347  3.374832
  S     2.695721  0.651288  1.159368
  S     2.702771  4.828553  0.851226
  S     2.265491  1.136906  5.224781
  S     1.639423  5.294212  4.854137
