16  
    
  C    -1.662405 -1.133310  2.641595
  C    -1.792713  2.577215  2.419552
  C    -2.861579 -1.572234  1.932168
  C    -3.011009  2.268389  1.748829
  N    -0.589110 -0.928501  1.888533
  N    -0.721237  2.579712  1.626378
  N    -2.657343 -1.567726  0.630569
  N    -2.897254  2.127501  0.418638
  N    -3.444877 -1.567976  4.359728
  N    -3.607522  2.364165  4.254760
  S    -4.221685 -1.780461  2.929961
  S    -4.373945  2.093756  2.805951
  S    -1.083117 -1.233101  0.362991
  S    -1.291161  2.394888  0.051170
  S    -1.882368 -1.019165  4.352494
  S    -1.944930  2.602230  4.181154
