16  
    
  C     1.608413  0.897496  3.250359
  C     2.018684  4.469732  3.362384
  C     0.454102  0.343759  2.540743
  C     0.770458  4.090167  2.711289
  N     2.675678  1.160255  2.510208
  N     2.953937  4.740214  2.447037
  N     0.668343  0.204139  1.211968
  N     0.827086  3.792858  1.416303
  N    -0.275648  0.411184  5.022829
  N     0.228589  4.466212  5.148975
  S    -0.930915  0.027617  3.517743
  S    -0.528241  3.920339  3.802612
  S     2.223062  0.761934  0.946196
  S     2.432869  4.192522  0.909608
  S     1.270387  1.196832  4.932615
  S     1.783717  4.912629  4.991540
