16  
    
  C    -4.737526 -2.371652  1.474223
  C    -4.576912  0.975413  1.608454
  C    -5.963449 -2.775094  0.860604
  C    -5.837480  0.875936  0.891784
  N    -3.703308 -2.297231  0.628328
  N    -3.520206  1.193098  0.809162
  N    -5.924766 -2.933974 -0.440464
  N    -5.678773  0.825583 -0.428945
  N    -6.441950 -2.690327  3.402466
  N    -6.291775  0.721467  3.420738
  S    -7.306911 -3.045772  2.044020
  S    -7.151065  0.566456  2.025223
  S    -4.344995 -2.611258 -0.914220
  S    -4.132140  1.076071 -0.719625
  S    -4.826764 -2.528716  3.211998
  S    -4.709419  0.953569  3.345710
