16  
    
  C     2.536432  1.093111  3.248224
  C     3.010726  5.383556  3.847129
  C     1.376398  0.526606  2.640439
  C     1.716805  4.962092  3.345755
  N     3.544525  1.290071  2.386450
  N     4.018348  5.129982  2.978610
  N     1.517219  0.284074  1.343437
  N     1.730246  4.658755  2.021677
  N     0.632748  0.787944  5.043286
  N     1.236694  5.696723  5.815268
  S    -0.094239  0.343250  3.624955
  S     0.359737  5.301321  4.417443
  S     3.054975  0.765316  0.926479
  S     3.306627  4.790275  1.543309
  S     2.182191  1.339195  4.958501
  S     2.904105  5.861323  5.568234
