16  
    
  C    -0.886507 -0.727793  2.295279
  C    -0.716887  2.995575  2.405094
  C    -1.983805 -1.539550  1.752260
  C    -1.966689  2.632360  1.863121
  N     0.197007 -0.602676  1.493461
  N     0.251959  3.315143  1.542414
  N    -1.677078 -1.847850  0.462449
  N    -1.926107  2.434360  0.555460
  N    -2.758417 -0.969574  4.083148
  N    -2.423265  2.733304  4.372109
  S    -3.431826 -1.481528  2.633344
  S    -3.252225  2.545831  2.968608
  S    -0.258137 -1.260489  0.044847
  S    -0.378650  2.787666  0.065763
  S    -1.198479 -0.369047  3.973802
  S    -0.848245  3.236044  4.197302
