16  
    
  C     2.291119  0.740333  3.530236
  C     1.868253  5.062596  3.165418
  C     0.999697  0.609191  2.907082
  C     0.792296  4.561871  2.321424
  N     3.304883  0.740918  2.660226
  N     2.915903  5.342556  2.414242
  N     1.067811  0.594410  1.565907
  N     1.107924  4.301782  1.057249
  N     0.648781  1.077761  5.477706
  N    -0.030576  4.825856  4.809663
  S    -0.277949  0.538755  4.188021
  S    -0.558126  4.093676  3.384034
  S     2.686419  0.652825  1.162100
  S     2.707163  4.838113  0.852897
  S     2.263761  1.140273  5.225691
  S     1.629547  5.295513  4.855031
