16  
    
  C    -5.231373 -2.888381  1.406204
  C    -5.490768  1.012917  1.317294
  C    -6.459592 -3.430289  0.828160
  C    -6.602353  0.527865  0.583698
  N    -4.344900 -2.471694  0.498934
  N    -4.555253  1.434906  0.508562
  N    -6.454556 -3.547174 -0.474226
  N    -6.425551  0.480772 -0.724085
  N    -7.010058 -2.929312  3.315547
  N    -7.283210  0.608938  3.101522
  S    -7.797117 -3.600506  2.004483
  S    -7.931152  0.075634  1.625028
  S    -5.031368 -2.807832 -1.043864
  S    -4.929928  1.090953 -1.051132
  S    -5.327956 -2.649672  3.178058
  S    -5.698689  1.129978  3.062701
