16  
    
  C     2.676990  1.198946  3.570034
  C     2.874473  5.065711  3.604544
  C     1.501590  0.816745  2.808172
  C     1.598313  4.905497  2.982446
  N     3.794558  1.563995  2.942255
  N     3.933976  4.855549  2.845745
  N     1.734434  0.845932  1.494439
  N     1.676332  4.807535  1.650950
  N     0.833694  0.823673  5.354338
  N     1.193952  5.402604  5.547368
  S     0.147634  0.513319  3.888080
  S     0.325406  5.166386  4.121304
  S     3.302953  1.378775  1.266177
  S     3.327918  4.924362  1.300464
  S     2.442227  1.080338  5.273973
  S     2.869691  5.255530  5.312855
