16  
    
  C     1.476242  0.742358  2.912123
  C     0.907260  4.046770  2.542679
  C     0.272766  0.294286  2.258974
  C    -0.278092  3.471293  1.825968
  N     2.493876  1.026851  2.101671
  N     1.872400  4.410398  1.746137
  N     0.308432  0.262813  0.902123
  N    -0.124646  3.217267  0.517407
  N    -0.160295  0.178682  4.717247
  N    -0.909989  3.733757  4.386811
  S    -1.039434  0.049256  3.378134
  S    -1.556903  3.140314  2.942761
  S     1.877391  0.673198  0.556573
  S     1.477029  3.734688  0.221188
  S     1.394344  0.787676  4.609944
  S     0.674365  4.329631  4.251269
