16  
    
  C    -2.875075 -1.725648  1.995973
  C    -2.634957  2.142007  2.023420
  C    -4.078109 -2.144627  1.247005
  C    -3.857637  1.870594  1.338891
  N    -1.820543 -1.423877  1.228079
  N    -1.576486  2.194547  1.223224
  N    -3.823932 -2.362457 -0.033481
  N    -3.778936  1.825087 -0.000377
  N    -4.786783 -2.246197  3.685456
  N    -4.483281  1.959856  3.809173
  S    -5.442219 -2.547168  2.220063
  S    -5.247456  1.874221  2.348168
  S    -2.302091 -1.868087 -0.325716
  S    -2.216923  2.101915 -0.350979
  S    -3.205327 -1.690829  3.741239
  S    -2.896211  2.452345  3.736166
