16  
    
  C     2.487652  1.214567  3.354022
  C     2.859716  5.233512  3.777524
  C     1.379991  0.646457  2.652454
  C     1.696633  4.516469  3.291003
  N     3.577409  1.358857  2.625058
  N     3.871961  5.355445  2.937553
  N     1.679497  0.364892  1.385338
  N     1.809710  4.153558  2.015712
  N     0.564832  0.873672  5.056135
  N     1.225249  5.013356  5.798754
  S    -0.151660  0.454353  3.567369
  S     0.290606  4.670935  4.494384
  S     3.281283  0.781880  1.125527
  S     3.290881  4.704330  1.475667
  S     2.166164  1.382880  5.032211
  S     2.698503  5.705960  5.491075
