16  
    
  C    -2.806409 -1.519839  2.006388
  C    -3.176964  1.974724  1.859107
  C    -4.072251 -1.832816  1.425346
  C    -4.293006  1.433270  1.124225
  N    -1.816688 -1.302392  1.128947
  N    -2.050484  2.084618  1.148141
  N    -3.956706 -2.160193  0.128649
  N    -4.082909  1.299014 -0.164280
  N    -4.552301 -1.684652  3.939800
  N    -5.129394  1.732217  3.459641
  S    -5.381723 -1.938200  2.504961
  S    -5.734911  1.137900  2.048725
  S    -2.437711 -1.667002 -0.349550
  S    -2.491320  1.604094 -0.374722
  S    -2.993119 -1.244511  3.735532
  S    -3.510615  2.072500  3.576199
