16  
    
  C    -0.108592 -0.411387  2.586744
  C    -0.010790  3.232699  2.569644
  C    -1.262315 -1.109259  1.914198
  C    -1.090146  2.648173  1.884033
  N     0.921495 -0.156368  1.808074
  N     0.903530  3.725068  1.775962
  N    -1.118329 -1.119052  0.601948
  N    -0.936711  2.489300  0.562279
  N    -1.891884 -0.985646  4.367660
  N    -1.841860  2.933833  4.318953
  S    -2.635268 -1.372460  2.907434
  S    -2.482017  2.293455  2.886148
  S     0.410697 -0.531153  0.263439
  S     0.538210  3.172807  0.235426
  S    -0.297567 -0.470123  4.276160
  S    -0.330052  3.528735  4.322055
