16  
    
  C    -2.219998 -1.064733  2.056163
  C    -2.649312  2.463781  2.311732
  C    -3.267179 -1.868090  1.485290
  C    -3.798380  1.869612  1.685801
  N    -1.273810 -0.655206  1.212183
  N    -1.771313  2.908539  1.437825
  N    -3.184795 -2.013870  0.181252
  N    -3.720983  1.674052  0.385542
  N    -3.978413 -1.611720  3.948500
  N    -4.389762  2.225670  4.157601
  S    -4.507200 -2.349039  2.613749
  S    -5.105696  1.623253  2.791197
  S    -1.839236 -1.155973 -0.317525
  S    -2.296071  2.380324 -0.085959
  S    -2.428824 -1.016315  3.847825
  S    -2.858084  2.888665  3.995999
