16  
    
  C    -4.680734 -2.866812  1.538026
  C    -4.703250  0.963136  1.430488
  C    -6.008109 -2.998653  0.942001
  C    -5.938362  0.691449  0.735173
  N    -3.699714 -2.741871  0.611960
  N    -3.610681  1.033320  0.653420
  N    -5.956942 -3.148360 -0.377351
  N    -5.827014  0.739607 -0.578397
  N    -6.378373 -2.640914  3.495987
  N    -6.490506  0.783692  3.308011
  S    -7.326450 -2.968259  2.110104
  S    -7.311687  0.706274  1.805504
  S    -4.418505 -2.839876 -0.862745
  S    -4.121786  0.962917 -0.932600
  S    -4.754168 -2.469245  3.200631
  S    -4.837549  1.006835  3.139074
