16  
    
  C     2.058340  0.592071  3.216754
  C     2.009348  4.354997  3.022053
  C     0.776082  0.280220  2.679403
  C     0.779709  4.044897  2.389479
  N     3.029336  0.698210  2.308395
  N     3.033708  4.372067  2.211263
  N     0.761808  0.018522  1.366521
  N     0.826279  3.678495  1.129836
  N     0.404705  0.816437  5.100272
  N     0.252427  4.307500  4.946195
  S    -0.517512  0.667466  3.754050
  S    -0.506949  3.937396  3.533854
  S     2.370923  0.358992  0.817890
  S     2.487915  3.970327  0.701637
  S     2.049737  0.907119  4.898524
  S     1.915809  4.815120  4.729047
