16  
    
  C    -4.926042 -2.580619  1.943874
  C    -5.261611  1.010667  1.775553
  C    -6.131223 -2.910381  1.224114
  C    -6.457115  0.457089  1.148082
  N    -3.881158 -2.422055  1.158848
  N    -4.190789  1.197258  0.982093
  N    -5.978868 -3.241923 -0.047186
  N    -6.404144  0.370339 -0.183541
  N    -6.744521 -2.510644  3.667688
  N    -7.112393  1.052279  3.621416
  S    -7.438765 -3.234929  2.301611
  S    -7.887785  0.562091  2.239520
  S    -4.359198 -2.838049 -0.353481
  S    -4.805091  0.820410 -0.566487
  S    -5.080566 -2.338615  3.656238
  S    -5.506017  1.330971  3.460538
