16  
    
  C     1.771098  0.550313  3.028161
  C     1.877358  4.259906  3.331154
  C     0.486101  0.176047  2.434091
  C     0.633256  3.954095  2.716231
  N     2.720375  0.763146  2.170513
  N     2.932496  4.341492  2.538697
  N     0.505669  0.024866  1.138092
  N     0.656321  4.235041  1.413498
  N     0.187122  0.312141  4.945366
  N     0.153717  3.926609  5.229226
  S    -0.758153  0.094296  3.650926
  S    -0.730662  3.835392  3.808416
  S     2.099470  0.450626  0.670349
  S     2.340103  4.273804  0.953650
  S     1.858766  0.541361  4.746753
  S     1.828158  4.239360  5.016990
