16  
    
  C    -5.840020 -3.030261  1.549380
  C    -6.113040  0.843067  1.382633
  C    -6.970673 -3.475168  0.794187
  C    -7.264080  0.153852  0.835811
  N    -4.702602 -3.020747  0.891547
  N    -5.223781  1.330337  0.500116
  N    -6.689280 -3.556472 -0.519971
  N    -7.302423  0.135210 -0.506308
  N    -7.683178 -3.237441  3.277147
  N    -7.579904  0.278679  3.362977
  S    -8.378309 -3.575581  1.800389
  S    -8.359103 -0.359455  2.026044
  S    -5.069905 -3.306500 -0.622557
  S    -5.918841  0.881469 -0.946485
  S    -6.051484 -2.930904  3.207251
  S    -6.098936  0.923988  3.144589
