16  
    
  C    -1.059164 -0.753066  2.312735
  C    -0.706274  2.905675  2.581562
  C    -2.282946 -1.235224  1.636849
  C    -1.937871  2.525732  1.933996
  N    -0.042546 -0.721738  1.440420
  N     0.327665  3.062655  1.767001
  N    -2.047867 -1.707402  0.376131
  N    -1.872370  2.467626  0.627684
  N    -2.889896 -0.628973  4.014361
  N    -2.564025  2.898584  4.419565
  S    -3.485079 -1.555440  2.797946
  S    -3.346259  2.447929  2.995454
  S    -0.511835 -1.314126 -0.023390
  S    -0.264659  2.678312  0.222133
  S    -1.265503 -0.258508  3.932620
  S    -0.920855  3.289630  4.258193
