16  
    
  C    -0.043703 -0.544494  2.420461
  C    -0.185370  3.265024  2.635190
  C    -1.232230 -0.990183  1.817541
  C    -1.443029  2.738986  2.008707
  N     0.994072 -0.552907  1.614087
  N     0.839969  3.404868  1.796543
  N    -1.231006 -0.983384  0.499510
  N    -1.288212  2.387389  0.726593
  N    -1.684795 -0.851604  4.357870
  N    -1.951772  2.854121  4.523310
  S    -2.449734 -1.274297  2.983992
  S    -2.651272  2.238492  3.180057
  S     0.382858 -0.823823  0.063648
  S     0.212813  2.941798  0.287875
  S    -0.076036 -0.405970  4.162930
  S    -0.411832  3.473762  4.300951
