16  
    
  C    -1.493520 -1.199240  2.688513
  C    -1.624422  2.653643  2.381815
  C    -2.617570 -1.602917  1.882187
  C    -2.848449  2.206225  1.684042
  N    -0.419362 -0.818774  2.045685
  N    -0.511454  2.757960  1.623686
  N    -2.366663 -1.688050  0.599349
  N    -2.577551  1.832996  0.428424
  N    -3.471884 -1.447816  4.343903
  N    -3.532289  2.452192  4.136602
  S    -4.035322 -1.909058  2.797707
  S    -4.251252  2.089706  2.667789
  S    -0.794548 -1.183307  0.451965
  S    -0.979296  2.260981  0.093119
  S    -1.801044 -1.225318  4.403795
  S    -1.916312  2.867109  4.115797
