16  
    
  C     1.489812  0.993590  3.293008
  C     1.527503  4.315488  3.475465
  C     0.249613  0.488571  2.700881
  C     0.184024  4.131406  2.938474
  N     2.514071  1.088725  2.442038
  N     2.397708  4.437420  2.527325
  N     0.328795  0.172900  1.435567
  N     0.073301  4.034002  1.624370
  N    -0.198456  0.818213  5.219395
  N    -0.092487  4.682659  5.428254
  S    -1.080957  0.559737  3.824097
  S    -0.985006  4.188614  4.160437
  S     1.888666  0.573003  0.960304
  S     1.693834  4.167841  1.027486
  S     1.290496  1.329303  5.007098
  S     1.518336  4.830361  5.113940
