16  
    
  C     1.387092  0.748011  3.427781
  C     1.262308  4.465931  3.135761
  C     0.145120  0.267857  2.853448
  C    -0.069878  4.115083  2.618802
  N     2.396392  0.901332  2.554073
  N     2.262503  4.678378  2.296701
  N     0.215772 -0.059254  1.562387
  N    -0.067661  4.045111  1.285117
  N    -0.227106  0.973440  5.377638
  N    -0.329268  4.163672  5.165829
  S    -1.132019  0.505943  3.996798
  S    -1.270687  3.842859  3.878182
  S     1.766178  0.345277  1.099889
  S     1.478864  4.409606  0.796623
  S     1.433731  1.231175  5.088628
  S     1.248567  4.634993  4.880173
