16  
    
  C    -3.834228 -2.298910  1.615700
  C    -3.534057  1.884356  1.553957
  C    -5.170831 -2.471166  1.011643
  C    -4.705352  1.362022  0.990773
  N    -2.816248 -1.972755  0.826918
  N    -2.496966  2.155581  0.752823
  N    -5.084699 -2.380976 -0.316983
  N    -4.599705  1.153970 -0.327744
  N    -5.602172 -2.384717  3.558085
  N    -5.224607  1.571490  3.613209
  S    -6.486853 -2.738454  2.157674
  S    -5.885816  0.967134  2.204494
  S    -3.526185 -2.024033 -0.725528
  S    -3.090816  1.708141 -0.784456
  S    -3.954806 -2.501903  3.384175
  S    -3.657945  2.138179  3.335405
