16  
    
  C     3.183720  1.630941  3.683181
  C     3.135928  5.200634  3.435833
  C     2.004217  1.144623  3.030387
  C     2.033106  4.538966  2.758803
  N     4.195614  1.695256  2.841898
  N     4.189082  5.359845  2.646110
  N     2.136340  0.801724  1.755573
  N     2.139632  4.427051  1.429897
  N     1.418482  1.449786  5.474847
  N     1.346439  4.777946  5.165272
  S     0.675849  1.065101  4.073470
  S     0.644949  4.250328  3.714109
  S     3.708126  1.115671  1.358581
  S     3.696337  4.875671  1.075950
  S     2.954008  2.055446  5.349224
  S     2.898552  5.374865  5.144877
