16  
    
  C     2.673469  1.088251  3.188099
  C     2.593509  4.959220  3.564927
  C     1.410437  0.730154  2.539126
  C     1.412995  4.302398  3.049670
  N     3.702802  1.151098  2.341410
  N     3.501630  5.260364  2.636120
  N     1.562005  0.546334  1.240415
  N     1.574836  3.922789  1.777614
  N     0.751423  1.000668  4.885232
  N     0.877411  4.686743  5.533864
  S     0.050896  0.345346  3.556224
  S     0.036964  4.247667  4.074223
  S     3.141748  0.771959  0.850681
  S     2.896828  4.681309  1.223018
  S     2.385936  1.325243  4.916036
  S     2.476897  5.293773  5.300726
