16  
    
  C    -3.056224 -1.767321  1.882835
  C    -3.469912  1.610159  2.125392
  C    -4.312778 -2.267847  1.344707
  C    -4.677902  1.123390  1.471187
  N    -2.138912 -1.485724  0.953585
  N    -2.407421  1.509263  1.332284
  N    -4.161554 -2.662190  0.099464
  N    -4.495059  0.900855  0.185520
  N    -4.646925 -2.072825  3.891861
  N    -5.275933  1.416691  3.829247
  S    -5.528012 -2.431955  2.538005
  S    -6.102360  1.146998  2.409001
  S    -2.688992 -2.127325 -0.489033
  S    -2.892745  1.111548 -0.136946
  S    -3.071826 -1.489836  3.640060
  S    -3.681247  1.860061  3.833492
