16  
    
  C     2.224706  1.307942  3.421601
  C     2.276480  4.807978  3.278953
  C     1.069244  0.818168  2.742275
  C     1.078165  4.356710  2.630016
  N     3.244558  1.632657  2.588364
  N     3.308843  4.940148  2.452450
  N     1.225004  0.689942  1.437161
  N     1.133612  4.357707  1.301756
  N     0.470986  0.684466  5.304706
  N     0.653051  4.254805  5.095286
  S    -0.251273  0.488896  3.767762
  S    -0.132907  3.846598  3.743327
  S     2.778206  1.179204  1.093968
  S     2.684524  4.811742  0.934744
  S     2.118265  1.014447  5.127863
  S     2.176457  4.711589  5.009586
