16  
    
  C     1.480586  1.068164  3.190479
  C     1.665309  4.618495  3.380464
  C     0.272337  0.575596  2.591932
  C     0.451328  4.071374  2.777623
  N     2.521819  1.224765  2.391655
  N     2.722509  4.499224  2.539125
  N     0.408122  0.334086  1.259881
  N     0.487538  3.838248  1.433966
  N    -0.312908  0.927350  5.016104
  N     0.013045  4.588825  5.385951
  S    -1.038399  0.335061  3.721139
  S    -0.831140  4.298376  3.951804
  S     1.955684  0.776306  0.904824
  S     2.067388  3.999805  1.113320
  S     1.327519  1.234178  4.887920
  S     1.651962  4.857546  5.092650
