16  
    
  C     2.216482  0.960322  3.290344
  C     2.190024  4.370062  2.926379
  C     0.931785  0.641613  2.707600
  C     0.903006  4.150535  2.302871
  N     3.241980  1.052872  2.423975
  N     3.218201  4.672586  2.097255
  N     0.949336  0.525527  1.376690
  N     0.996831  3.985705  0.967092
  N     0.410375  0.994259  5.179170
  N     0.325865  4.385489  4.847467
  S    -0.417359  0.494654  3.803496
  S    -0.370041  3.801495  3.409077
  S     2.521430  0.825297  0.883877
  S     2.573614  4.236173  0.609459
  S     1.982784  1.248996  5.019300
  S     1.983655  4.667949  4.710046
