16  
    
  C    -5.685693 -3.010975  1.471969
  C    -6.064025  0.970583  1.489266
  C    -6.861763 -3.526960  0.816921
  C    -7.158800  0.219083  0.912368
  N    -4.675214 -2.802421  0.616793
  N    -5.145634  1.324125  0.581974
  N    -6.830818 -3.682150 -0.495622
  N    -7.204129  0.088751 -0.425520
  N    -7.506577 -3.557902  3.288681
  N    -7.470032  0.169096  3.470600
  S    -8.180294 -3.840991  1.831534
  S    -8.300643 -0.298196  2.176772
  S    -5.284868 -3.264880 -0.888855
  S    -5.735834  0.791074 -0.931771
  S    -6.034967 -2.776847  3.214471
  S    -6.094074  1.002925  3.183809
