16  
    
  C     2.516862  1.215691  3.363905
  C     2.852016  5.066875  3.779691
  C     1.447071  0.648558  2.608690
  C     1.614594  4.601595  3.255148
  N     3.592634  1.406664  2.627048
  N     3.743701  5.244802  2.824858
  N     1.688182  0.276339  1.352124
  N     1.625304  4.251164  1.986406
  N     0.589323  0.867628  5.052908
  N     1.142683  4.914068  5.736641
  S     0.023858  0.517589  3.506952
  S     0.366457  4.433630  4.380288
  S     3.220382  0.791725  1.094195
  S     3.138252  4.597577  1.450864
  S     2.124369  1.377317  5.105400
  S     2.617114  5.675221  5.420721
