16  
    
  C    -1.593245 -1.075108  2.291176
  C    -1.831390  2.385626  2.255947
  C    -2.883690 -1.461417  1.736094
  C    -3.087408  1.964387  1.616924
  N    -0.632258 -1.086519  1.402687
  N    -0.812185  2.691462  1.414833
  N    -2.864659 -1.547528  0.412192
  N    -2.873101  1.712809  0.314195
  N    -3.241502 -0.903673  4.234823
  N    -3.561860  2.186571  4.129816
  S    -4.145481 -1.258809  2.907033
  S    -4.359744  1.785423  2.710157
  S    -1.299899 -1.330118 -0.083148
  S    -1.351584  2.177102 -0.072991
  S    -1.602062 -0.875003  4.078032
  S    -1.938619  2.588943  3.980473
