16  
    
  C    -0.025287 -0.667976  2.559723
  C    -0.319911  3.240360  2.618646
  C    -1.201404 -1.257925  2.085082
  C    -1.547961  2.589395  2.047873
  N     0.968125 -0.536595  1.684376
  N     0.672181  3.394088  1.742927
  N    -1.151773 -1.521352  0.783327
  N    -1.495811  2.460935  0.723214
  N    -1.722337 -0.677668  4.500385
  N    -1.948298  2.903948  4.633695
  S    -2.593431 -1.139210  3.152330
  S    -2.781249  2.495301  3.251844
  S     0.334350 -1.043475  0.189870
  S     0.028805  2.946431  0.246644
  S    -0.145540 -0.363904  4.249764
  S    -0.284900  3.293908  4.359361
