16  
    
  C     2.665429  1.064152  3.148734
  C     2.581332  4.927846  3.571222
  C     1.457897  0.630557  2.524191
  C     1.402326  4.331073  2.978940
  N     3.696871  1.156636  2.339309
  N     3.510677  5.300261  2.684590
  N     1.511706  0.511124  1.194238
  N     1.531013  3.930101  1.709753
  N     0.794558  0.852165  4.998343
  N     0.872088  4.583156  5.412053
  S     0.078563  0.380410  3.513586
  S     0.032156  4.249679  4.046648
  S     3.106606  0.788627  0.797572
  S     2.934963  4.676270  1.190516
  S     2.425161  1.302807  4.850021
  S     2.371166  5.223900  5.288245
