16  
    
  C    -3.380414 -2.093388  1.905309
  C    -3.738469  1.926724  1.954152
  C    -4.450945 -2.863999  1.246951
  C    -4.674618  1.070132  1.296653
  N    -2.284315 -2.017958  1.155518
  N    -2.742731  2.427901  1.202183
  N    -4.278660 -3.148329 -0.067758
  N    -4.371027  0.761307  0.026845
  N    -5.177566 -2.378662  3.709252
  N    -5.621520  1.401641  3.750091
  S    -5.891458 -2.917064  2.273982
  S    -5.999553  0.569494  2.381960
  S    -2.714730 -2.588487 -0.354843
  S    -2.985286  1.656247 -0.336342
  S    -3.636349 -1.693094  3.549628
  S    -4.254492  2.291016  3.551056
