16  
    
  C    -2.563717 -1.308689  2.251755
  C    -2.601243  2.489196  2.309090
  C    -3.766837 -1.630950  1.549194
  C    -3.667277  1.774873  1.722522
  N    -1.612779 -1.020893  1.346086
  N    -1.615000  2.890371  1.487403
  N    -3.693406 -1.880503  0.236029
  N    -3.621912  1.795123  0.372925
  N    -4.355019 -1.730545  4.031105
  N    -4.401463  2.015698  4.203884
  S    -5.085579 -2.013802  2.534454
  S    -5.069202  1.445261  2.756676
  S    -2.134357 -1.470164 -0.145108
  S    -2.211992  2.585098 -0.050598
  S    -2.786919 -1.100309  3.953416
  S    -2.798754  2.516350  4.073113
