16  
    
  C    -3.454756 -2.211417  1.866090
  C    -3.761091  1.963720  1.945779
  C    -4.552763 -2.877429  1.246731
  C    -4.712202  1.046962  1.312183
  N    -2.389575 -2.008053  1.110481
  N    -2.811058  2.349057  1.111350
  N    -4.223081 -3.281715  0.006820
  N    -4.358305  0.796517  0.060698
  N    -5.250668 -2.461700  3.686312
  N    -5.516699  1.357794  3.738810
  S    -5.922837 -2.966708  2.274797
  S    -6.006126  0.494234  2.340306
  S    -2.705507 -2.691457 -0.370023
  S    -3.004163  1.680411 -0.337679
  S    -3.711268 -1.823400  3.601707
  S    -4.224307  2.414972  3.560984
