16  
    
  C     2.499903  1.220200  3.364348
  C     2.845261  5.242801  3.778672
  C     1.382753  0.647320  2.630932
  C     1.702127  4.458078  3.317468
  N     3.598772  1.398738  2.652258
  N     3.874012  5.330998  2.919831
  N     1.674258  0.342806  1.382571
  N     1.760257  4.197610  2.004411
  N     0.558886  0.856968  5.017318
  N     1.205984  4.976104  5.828107
  S    -0.117031  0.463413  3.571971
  S     0.302370  4.633153  4.468962
  S     3.275719  0.775013  1.107413
  S     3.264857  4.675682  1.452743
  S     2.159370  1.381700  5.057668
  S     2.675082  5.697074  5.467639
