16  
    
  C     0.544129 -0.135570  2.793556
  C     0.268758  3.595293  2.888529
  C    -0.716323 -0.480908  2.196938
  C    -0.903035  3.293357  2.121690
  N     1.523314  0.184505  1.944533
  N     1.285058  3.952543  2.102765
  N    -0.604049 -0.683094  0.896074
  N    -0.735161  3.081042  0.811698
  N    -1.120728 -0.501187  4.691885
  N    -1.550780  3.059677  4.656155
  S    -2.028296 -0.678161  3.306670
  S    -2.215965  2.793215  3.175520
  S     0.922103 -0.174326  0.398214
  S     0.797745  3.676371  0.554741
  S     0.466878  0.009558  4.511501
  S     0.111970  3.484456  4.643954
