16  
    
  C    -2.674193 -1.924494  2.002584
  C    -2.956844  2.256791  1.849947
  C    -3.915546 -1.971400  1.271904
  C    -3.990377  1.584601  1.153464
  N    -1.609128 -1.849128  1.220909
  N    -1.955506  2.607997  1.034141
  N    -3.796766 -2.226018 -0.022829
  N    -3.900695  1.588059 -0.191131
  N    -4.527117 -1.846855  3.772579
  N    -4.811696  1.730683  3.609170
  S    -5.281112 -2.136315  2.269413
  S    -5.479901  1.399759  2.113994
  S    -2.164462 -2.158112 -0.347519
  S    -2.382000  2.310263 -0.538850
  S    -2.900480 -1.746235  3.731993
  S    -3.255846  2.320477  3.568360
