16  
    
  C    -1.081842 -0.696038  2.238665
  C    -0.715572  2.985684  2.627829
  C    -2.244756 -1.386203  1.728406
  C    -1.980073  2.613087  1.990048
  N    -0.007018 -0.673792  1.429951
  N     0.322650  3.077255  1.765356
  N    -2.164913 -1.642605  0.395648
  N    -1.799190  2.308320  0.724661
  N    -2.857860 -0.684457  4.137942
  N    -2.566040  2.971916  4.453729
  S    -3.555778 -1.440536  2.787491
  S    -3.331866  2.545490  3.020597
  S    -0.565116 -1.261003 -0.019276
  S    -0.267300  2.684184  0.288794
  S    -1.250687 -0.290095  3.964246
  S    -0.921975  3.283859  4.347858
