16  
    
  C     2.174158  1.069843  3.449729
  C     2.057029  5.017796  3.132605
  C     0.896690  0.680697  2.850964
  C     0.885932  4.505156  2.460601
  N     3.204216  1.199976  2.629190
  N     3.108402  5.288072  2.379218
  N     0.997409  0.483033  1.550512
  N     1.064740  4.467577  1.141483
  N     0.500120  1.042518  5.395719
  N     0.347807  4.406887  4.984314
  S    -0.373014  0.493451  4.101925
  S    -0.507107  4.151499  3.533277
  S     2.572367  0.804202  1.121708
  S     2.617872  4.916729  0.823346
  S     2.201163  1.260980  5.131455
  S     1.919486  4.795710  4.848290
