16  
    
  C     0.889780  0.047621  2.874839
  C     0.444612  3.645060  2.936986
  C    -0.366709 -0.255564  2.291050
  C    -0.838854  3.677411  2.391713
  N     1.854204  0.339153  1.995728
  N     1.457347  3.954965  2.094269
  N    -0.277870 -0.527934  0.999482
  N    -0.836848  3.683219  1.053176
  N    -0.812312 -0.081758  4.765265
  N    -1.113470  3.230565  4.932947
  S    -1.718714 -0.224185  3.361472
  S    -2.071548  3.301201  3.556493
  S     1.210138 -0.061474  0.518052
  S     0.708635  3.905850  0.606485
  S     0.830681  0.231921  4.552260
  S     0.512413  3.341271  4.661402
