16  
    
  C     2.748824  1.125610  3.572221
  C     2.932721  4.967195  3.662403
  C     1.580581  0.750424  2.840234
  C     1.611782  4.873444  3.047278
  N     3.735239  1.572281  2.776622
  N     3.934044  4.835923  2.788325
  N     1.723732  0.797943  1.525114
  N     1.631576  4.858907  1.716736
  N     0.776417  0.837410  5.273620
  N     1.260322  5.471941  5.472326
  S     0.106739  0.459479  3.799070
  S     0.310593  5.220456  4.142134
  S     3.284180  1.386287  1.249126
  S     3.247881  4.879726  1.332144
  S     2.411313  1.052472  5.247207
  S     2.908901  5.302870  5.327893
