16  
    
  C     1.461807  0.791882  3.433459
  C     1.271283  4.534651  3.209005
  C     0.206505  0.331270  2.908302
  C    -0.031975  4.260852  2.701494
  N     2.412656  0.823874  2.531793
  N     2.174734  4.716912  2.254875
  N     0.264142  0.040062  1.624842
  N    -0.019948  3.959936  1.392065
  N    -0.245053  0.931439  5.297112
  N    -0.194636  4.181669  5.239315
  S    -1.150315  0.496367  4.038055
  S    -1.269780  3.913957  3.962225
  S     1.807888  0.372206  1.093392
  S     1.460460  4.396011  0.851367
  S     1.408111  1.250822  5.125383
  S     1.357237  4.660094  4.916768
