16  
    
  C     2.016620  1.162755  3.047049
  C     2.182015  4.335104  2.982394
  C     0.794045  0.708442  2.447983
  C     1.032285  3.896357  2.312870
  N     3.078065  1.243073  2.223240
  N     3.263881  4.560956  2.220525
  N     0.942347  0.475570  1.147464
  N     1.288787  3.632140  1.020782
  N     0.264104  0.943859  4.924583
  N     0.252339  4.271163  4.817808
  S    -0.538157  0.484624  3.650757
  S    -0.386721  3.898379  3.279998
  S     2.483491  0.774158  0.762644
  S     2.874687  4.002925  0.710510
  S     1.850669  1.397276  4.786037
  S     1.958090  4.560502  4.748379
