16  
    
  C    -4.778806 -2.369985  1.801619
  C    -5.043274  1.149497  1.760070
  C    -6.033453 -2.797251  1.187472
  C    -6.106953  0.439594  1.112084
  N    -3.819105 -2.052729  0.922564
  N    -3.941643  1.239670  0.986586
  N    -5.928946 -3.040101 -0.098792
  N    -5.889344  0.233530 -0.191994
  N    -6.386572 -2.942373  3.727454
  N    -6.822377  0.938972  3.527826
  S    -7.268417 -3.256910  2.353745
  S    -7.430453  0.129895  2.197465
  S    -4.387464 -2.600561 -0.563458
  S    -4.402910  0.785372 -0.498578
  S    -4.924156 -2.169137  3.471703
  S    -5.241610  1.514624  3.441552
