16  
    
  C    -3.667936 -2.498383  1.740276
  C    -3.480452  1.803866  1.656577
  C    -4.937548 -2.684155  1.063490
  C    -4.573160  1.061191  1.099081
  N    -2.605840 -2.169509  0.926047
  N    -2.371627  1.934553  0.929647
  N    -4.810220 -2.857515 -0.259572
  N    -4.423245  0.792152 -0.210037
  N    -5.484613 -2.820598  3.622802
  N    -5.169448  1.508500  3.549321
  S    -6.287104 -2.933431  2.198000
  S    -5.825766  0.795996  2.199427
  S    -3.201364 -2.519406 -0.625927
  S    -2.882111  1.296368 -0.573757
  S    -3.846208 -2.608632  3.460641
  S    -3.636375  2.099265  3.400855
