16  
    
  C     1.244943  0.318244  3.128612
  C     0.962435  4.198049  2.596225
  C     0.096898  0.102767  2.325277
  C    -0.039538  3.379753  1.908968
  N     2.415129  0.232619  2.432408
  N     2.091593  4.338057  1.868659
  N     0.280912 -0.092319  1.022557
  N     0.236785  3.209766  0.616170
  N    -0.778316  0.459598  4.763994
  N    -0.946432  3.929527  4.272479
  S    -1.381909  0.279646  3.180830
  S    -1.521475  3.216548  2.835716
  S     1.892576 -0.008538  0.876288
  S     1.753618  3.770557  0.372414
  S     0.916503  0.669155  4.752520
  S     0.602372  4.388520  4.263559
