16  
    
  C    -5.691065 -2.992147  1.472680
  C    -6.066437  0.976440  1.479906
  C    -6.864545 -3.537346  0.825344
  C    -7.177573  0.231519  0.906541
  N    -4.674283 -2.829311  0.617758
  N    -5.138980  1.336206  0.570577
  N    -6.817939 -3.658529 -0.496357
  N    -7.210200  0.088307 -0.434847
  N    -7.513897 -3.567640  3.293948
  N    -7.468759  0.168459  3.479752
  S    -8.191848 -3.832269  1.832918
  S    -8.302920 -0.311103  2.180641
  S    -5.270109 -3.274076 -0.881214
  S    -5.746362  0.789870 -0.936064
  S    -6.042566 -2.773513  3.225563
  S    -6.098918  0.994629  3.181102
