16  
    
  C    -4.746881 -2.379973  1.498076
  C    -4.383662  0.924074  1.806191
  C    -5.922441 -2.829984  0.805786
  C    -5.653708  0.686250  1.154684
  N    -3.706226 -2.111229  0.699914
  N    -3.430427  1.400651  0.989008
  N    -5.821500 -2.745202 -0.501707
  N    -5.548772  0.768338 -0.141974
  N    -6.411235 -2.863791  3.313644
  N    -6.148868  0.640434  3.565354
  S    -7.248683 -3.082348  1.892463
  S    -7.052134  0.439251  2.213964
  S    -4.282957 -2.283355 -0.878886
  S    -4.119696  1.301054 -0.532553
  S    -4.837565 -2.333672  3.288500
  S    -4.581832  1.094853  3.485749
