16  
    
  C    -0.035169 -0.526991  2.457636
  C    -0.167566  3.311707  2.610847
  C    -1.186319 -1.147257  1.873071
  C    -1.249449  2.536827  1.978882
  N     0.983653 -0.294020  1.647590
  N     0.774491  3.739236  1.781140
  N    -1.168857 -1.154033  0.545571
  N    -0.989991  2.241888  0.706249
  N    -1.790775 -0.910873  4.381977
  N    -1.916810  2.831409  4.441283
  S    -2.544495 -1.300855  2.982389
  S    -2.595758  2.311270  3.006532
  S     0.363964 -0.567590  0.083616
  S     0.409109  3.040426  0.315454
  S    -0.181817 -0.551374  4.178699
  S    -0.402955  3.476100  4.307099
