16  
    
  C    -2.516872 -1.916699  1.938392
  C    -3.130030  2.142444  1.693768
  C    -3.793888 -2.121353  1.317227
  C    -4.263193  1.635436  0.995907
  N    -1.514016 -1.952512  1.077960
  N    -2.066540  2.458801  0.946178
  N    -3.817739 -2.209902  0.000177
  N    -4.034645  1.418647 -0.280381
  N    -4.254141 -1.681644  3.843275
  N    -4.992660  1.603320  3.446496
  S    -5.080452 -1.821593  2.410050
  S    -5.465460  0.959713  2.044220
  S    -2.238281 -2.184005 -0.455190
  S    -2.479811  1.956381 -0.606714
  S    -2.641987 -1.555481  3.696785
  S    -3.476760  2.204193  3.432516
