16  
    
  C    -5.012298 -2.535022  1.904185
  C    -5.429050  1.209135  1.631327
  C    -6.319206 -2.824588  1.307849
  C    -6.712043  0.896863  0.950448
  N    -4.018487 -2.488205  1.029708
  N    -4.399444  1.067508  0.819271
  N    -6.182616 -3.213140  0.036911
  N    -6.672598  0.733733 -0.355298
  N    -6.875796 -2.278125  3.800220
  N    -7.186259  1.086080  3.477685
  S    -7.702646 -2.742377  2.419238
  S    -8.032206  0.831643  2.067930
  S    -4.597515 -3.097928 -0.382574
  S    -4.992174  0.816682 -0.726468
  S    -5.209632 -2.186014  3.608424
  S    -5.529372  1.263788  3.384035
