16  
    
  C     1.121761 -0.014199  2.908062
  C     0.850197  3.836128  2.919006
  C    -0.166537 -0.377344  2.471046
  C    -0.399578  3.298506  2.392701
  N     2.006715  0.201136  1.945066
  N     1.813601  3.815799  2.008337
  N    -0.292807 -0.534799  1.163903
  N    -0.395676  3.182696  1.063280
  N    -0.449023 -0.113345  5.036585
  N    -0.706253  3.826591  4.951093
  S    -1.387851 -0.517165  3.755127
  S    -1.573860  3.363112  3.634072
  S     1.217104 -0.156665  0.531801
  S     1.212691  3.376617  0.591091
  S     1.083637  0.274019  4.656855
  S     0.909374  4.240807  4.643371
