16  
    
  C    -5.867459 -2.670292  1.201023
  C    -5.652730  0.823557  1.565161
  C    -7.072069 -3.190752  0.574246
  C    -6.827079  0.455054  0.849891
  N    -4.772895 -2.568483  0.463795
  N    -4.600778  0.923797  0.781034
  N    -7.005667 -3.143366 -0.779122
  N    -6.682144  0.285409 -0.443515
  N    -7.372269 -3.309283  3.208646
  N    -7.474830  0.480062  3.352142
  S    -8.267627 -3.478855  1.820619
  S    -8.214344  0.281649  1.891879
  S    -5.344214 -2.850011 -1.102458
  S    -5.069329  0.571254 -0.793118
  S    -5.977295 -2.496760  2.891779
  S    -5.942870  1.094800  3.262514
