16  
    
  C    -1.310252 -0.641684  1.908625
  C    -1.259752  3.414521  2.096142
  C    -2.654924 -1.155363  1.487925
  C    -2.412741  2.738349  1.644078
  N    -0.536930 -0.357525  0.878454
  N    -0.308192  3.715816  1.202500
  N    -2.686450 -1.536339  0.234847
  N    -2.400136  2.548490  0.322112
  N    -2.805719 -0.602441  3.992516
  N    -2.728772  2.918426  4.193480
  S    -3.755148 -1.238972  2.797747
  S    -3.606087  2.417333  2.827456
  S    -1.250851 -0.974205 -0.505552
  S    -0.956117  3.162813 -0.250774
  S    -1.284789 -0.120644  3.596375
  S    -1.136227  3.424142  3.866364
