16  
    
  C    -3.532704 -2.667350  1.859040
  C    -3.584636  1.811514  1.821679
  C    -4.783308 -2.985403  1.227024
  C    -4.564856  0.970278  1.240142
  N    -2.483570 -2.429165  1.069242
  N    -2.605757  2.186480  1.029078
  N    -4.615294 -3.032534 -0.095570
  N    -4.392189  0.622277 -0.013834
  N    -5.430841 -2.662032  3.654868
  N    -5.348156  1.512994  3.633617
  S    -6.110203 -3.288711  2.264169
  S    -5.904659  0.697693  2.292057
  S    -3.041775 -2.662250 -0.457031
  S    -3.005670  1.446188 -0.426221
  S    -3.826442 -2.299886  3.550867
  S    -3.807699  2.170747  3.449729
