16  
    
  C    -5.751782 -2.910282  1.204925
  C    -5.792549  0.831025  1.602226
  C    -6.913468 -3.515411  0.665088
  C    -6.947409  0.299601  0.909748
  N    -4.923571 -2.443013  0.279750
  N    -4.808469  1.184129  0.744665
  N    -6.869565 -3.680287 -0.647664
  N    -6.823549  0.144256 -0.422862
  N    -7.423874 -3.108465  3.171994
  N    -7.647536  0.675233  3.441071
  S    -8.104865 -3.811357  1.856806
  S    -8.272574 -0.030447  2.026055
  S    -5.462071 -2.965048 -1.159392
  S    -5.323698  0.738457 -0.762662
  S    -5.830156 -2.792326  2.932092
  S    -6.031844  1.016361  3.304146
