16  
    
  C     1.575747  0.673076  2.814107
  C     0.880802  3.942242  2.499373
  C     0.359854  0.168527  2.241639
  C    -0.336739  3.277554  1.858969
  N     2.620458  0.828110  2.010563
  N     1.942790  4.065843  1.693640
  N     0.461354 -0.015586  0.941399
  N    -0.283472  3.277735  0.538346
  N    -0.175050  0.640803  4.719664
  N    -0.845600  3.594821  4.423694
  S    -0.981283  0.070480  3.344248
  S    -1.622231  3.192700  3.013438
  S     2.022206  0.384027  0.503114
  S     1.321442  3.668208  0.138714
  S     1.503292  1.097879  4.472925
  S     0.760905  4.182278  4.260475
