16  
    
  C     0.789777  0.380660  3.064851
  C     0.614330  3.828980  3.004914
  C    -0.496478  0.117504  2.404796
  C    -0.663148  3.372242  2.451647
  N     1.816312  0.553540  2.239344
  N     1.543921  4.066661  2.082432
  N    -0.405701 -0.176971  1.101828
  N    -0.562800  2.914602  1.200747
  N    -1.006921  0.262618  4.910577
  N    -1.114467  3.960713  4.877071
  S    -1.824026  0.223713  3.448183
  S    -1.993179  3.300163  3.555327
  S     1.182473  0.144916  0.763322
  S     1.006761  3.310131  0.669918
  S     0.646161  0.578333  4.760036
  S     0.459116  4.236628  4.631113
