16  
    
  C     1.348729  0.887562  3.246853
  C     1.113049  4.483382  3.037240
  C     0.095267  0.407851  2.744830
  C     0.010965  3.906138  2.398064
  N     2.300012  0.867459  2.325866
  N     2.195769  4.625678  2.248155
  N     0.106007  0.014430  1.473568
  N     0.140788  3.929834  1.084300
  N    -0.306016  0.853527  5.252964
  N    -0.689297  4.090584  4.838268
  S    -1.154958  0.357824  3.902778
  S    -1.399237  3.642314  3.347801
  S     1.678295  0.230114  0.964212
  S     1.674582  4.402434  0.704581
  S     1.354955  1.206849  4.987481
  S     0.948620  4.404437  4.738991
