16  
    
  C    -2.498296 -1.228948  2.146791
  C    -2.791310  2.676193  2.304611
  C    -3.675020 -1.686133  1.469286
  C    -3.842622  1.935324  1.734269
  N    -1.423992 -0.854349  1.397904
  N    -1.797381  3.024862  1.483785
  N    -3.374242 -1.888152  0.152055
  N    -3.733210  1.830863  0.406461
  N    -4.126246 -1.718247  4.060199
  N    -4.383261  2.089383  4.268012
  S    -4.893789 -2.145131  2.625942
  S    -5.010849  1.352658  2.872431
  S    -1.872206 -1.234542 -0.136028
  S    -2.232632  2.468203  0.029102
  S    -2.683778 -0.933939  3.835328
  S    -2.853370  2.749936  4.083479
