16  
    
  C    -1.433393 -1.211535  2.167561
  C    -1.749100  2.244719  1.899444
  C    -2.745417 -1.415407  1.552668
  C    -3.040301  2.123766  1.347908
  N    -0.405210 -1.350295  1.340979
  N    -0.691984  2.367097  1.072905
  N    -2.701155 -1.449937  0.245868
  N    -2.984779  1.985324  0.017305
  N    -3.226131 -1.041212  4.049816
  N    -3.442870  2.298760  3.862565
  S    -4.046939 -1.174821  2.663625
  S    -4.272431  1.806834  2.512108
  S    -1.113286 -1.452890 -0.220647
  S    -1.402443  2.263270 -0.441474
  S    -1.607319 -0.785124  3.846131
  S    -1.779467  2.523953  3.637297
