16  
    
  C    -1.432332 -1.190442  2.180548
  C    -1.753007  2.252407  1.907945
  C    -2.724460 -1.423092  1.571907
  C    -3.042981  2.129570  1.342232
  N    -0.407771 -1.344393  1.334613
  N    -0.697398  2.360864  1.077287
  N    -2.697099 -1.442029  0.239471
  N    -2.988609  1.979506  0.016886
  N    -3.223329 -1.048397  4.050650
  N    -3.437495  2.284475  3.866001
  S    -4.049466 -1.174342  2.665155
  S    -4.266102  1.811063  2.515925
  S    -1.109730 -1.461066 -0.220158
  S    -1.410414  2.263395 -0.439378
  S    -1.603198 -0.787952  3.856158
  S    -1.778731  2.532723  3.640404
