16  
    
  C    -5.865629 -2.688180  1.221017
  C    -5.673141  0.815247  1.547304
  C    -7.065612 -3.141428  0.571312
  C    -6.835426  0.416391  0.861494
  N    -4.772937 -2.555974  0.484558
  N    -4.594293  0.898343  0.749115
  N    -6.988312 -3.144668 -0.761502
  N    -6.655555  0.304042 -0.439681
  N    -7.386689 -3.291210  3.199227
  N    -7.438702  0.483498  3.335380
  S    -8.286640 -3.461354  1.823007
  S    -8.210976  0.294295  1.885538
  S    -5.327557 -2.842698 -1.090121
  S    -5.060385  0.570469 -0.805607
  S    -5.984269 -2.494313  2.906913
  S    -5.934620  1.103383  3.285379
