16  
    
  C    -0.112500 -0.227223  2.494842
  C    -0.361142  3.429354  2.499219
  C    -1.270572 -0.746481  1.844284
  C    -1.658083  2.948027  1.975471
  N     0.932532  0.118937  1.704408
  N     0.598113  3.466228  1.585219
  N    -1.046710 -1.119983  0.582601
  N    -1.611977  2.681917  0.694805
  N    -2.032319 -0.654364  4.301311
  N    -1.983939  3.156912  4.459600
  S    -2.708158 -1.120102  2.803828
  S    -2.908886  2.980854  3.134260
  S     0.500252 -0.599551  0.215076
  S    -0.092698  3.117107  0.124723
  S    -0.476661 -0.061995  4.211326
  S    -0.374525  3.379931  4.287800
