16  
    
  C    -3.848239 -2.470876  1.627793
  C    -3.370795  1.718263  1.559901
  C    -5.119703 -2.303216  0.957230
  C    -4.591433  1.035439  1.048600
  N    -2.799089 -2.250859  0.803310
  N    -2.387313  1.952689  0.716224
  N    -5.078901 -2.147084 -0.364061
  N    -4.475796  0.967964 -0.266723
  N    -5.562015 -2.524019  3.493352
  N    -5.095991  1.505699  3.472513
  S    -6.430759 -2.757206  2.074781
  S    -5.909116  0.952403  2.110032
  S    -3.488986 -2.045950 -0.710824
  S    -3.027731  1.534340 -0.744163
  S    -3.922009 -2.593990  3.344311
  S    -3.563122  2.185379  3.222340
