16  
    
  C    -5.763486 -3.069168  1.543441
  C    -6.135227  0.950627  1.457256
  C    -6.993709 -3.357664  0.771707
  C    -7.277967  0.292006  0.903167
  N    -4.651579 -2.968741  0.843414
  N    -5.290822  1.306858  0.483264
  N    -6.745862 -3.601380 -0.524346
  N    -7.243518  0.121168 -0.426626
  N    -7.570177 -3.484905  3.325719
  N    -7.551600  0.192727  3.467145
  S    -8.370156 -3.732579  1.853966
  S    -8.331702 -0.408968  2.101557
  S    -5.087174 -3.321242 -0.780680
  S    -5.839757  0.824506 -0.974813
  S    -6.043367 -2.796595  3.240488
  S    -6.049497  0.965383  3.160114
