16  
    
  C     1.483987  0.965050  3.269042
  C     1.543185  4.437010  3.411870
  C     0.271017  0.440719  2.695588
  C     0.253497  4.044882  2.939550
  N     2.488522  1.144321  2.414719
  N     2.582418  4.355742  2.522141
  N     0.355609  0.148122  1.362451
  N     0.171993  4.081505  1.604814
  N    -0.288410  0.806283  5.164703
  N    -0.126002  4.694739  5.474132
  S    -1.088165  0.564796  3.787088
  S    -1.022851  4.199064  4.132772
  S     1.884619  0.640019  0.908181
  S     1.740521  4.112193  1.046865
  S     1.337754  1.352316  5.027669
  S     1.551902  4.854908  5.120373
