16  
    
  C     2.831593  1.526582  3.547112
  C     2.986655  5.144872  3.425977
  C     1.627604  0.892861  3.074041
  C     1.732765  4.765083  2.806629
  N     3.760184  1.639262  2.590516
  N     3.909739  5.626887  2.566466
  N     1.654780  0.546450  1.785279
  N     1.840069  4.637291  1.481430
  N     1.113574  1.419642  5.509091
  N     1.085523  5.092418  5.264345
  S     0.388602  0.643818  4.210921
  S     0.425630  4.340752  3.879440
  S     3.159736  1.043247  1.210217
  S     3.390549  5.204648  1.041539
  S     2.692332  1.872974  5.359068
  S     2.710154  5.374865  5.204742
