16  
    
  C     2.544100  1.133190  3.349826
  C     2.920736  5.238846  3.724146
  C     1.402275  0.635845  2.587505
  C     1.598372  5.226149  3.158331
  N     3.665307  1.400128  2.680805
  N     3.916137  5.078298  2.885413
  N     1.604002  0.632977  1.278954
  N     1.597170  4.780253  1.914386
  N     0.678413  0.772176  5.131206
  N     1.360165  5.449749  5.674617
  S     0.002845  0.166592  3.713824
  S     0.346396  5.419880  4.366588
  S     3.205314  1.050611  1.009511
  S     3.193592  4.617400  1.454020
  S     2.298350  1.223096  5.022229
  S     3.031455  5.529430  5.394111
