16  
    
  C    -3.691916 -2.459583  1.680187
  C    -3.443536  1.827916  1.680796
  C    -4.965867 -2.682544  1.048796
  C    -4.573956  1.100772  1.090151
  N    -2.621227 -2.163985  0.922610
  N    -2.395080  1.896954  0.883740
  N    -4.815890 -2.802839 -0.258945
  N    -4.421062  0.829598 -0.217310
  N    -5.472035 -2.839142  3.619482
  N    -5.130862  1.496061  3.504084
  S    -6.324064 -2.886251  2.174931
  S    -5.818826  0.801989  2.189251
  S    -3.224127 -2.488330 -0.636197
  S    -2.878920  1.282090 -0.553623
  S    -3.840772 -2.629319  3.449855
  S    -3.620788  2.088332  3.345634
