16  
    
  C    -4.672844 -2.224254  1.491904
  C    -4.438372  1.463387  1.911569
  C    -5.838215 -2.690599  0.706127
  C    -5.576625  0.769633  1.332119
  N    -3.625183 -1.817632  0.769135
  N    -3.465235  1.821106  1.048690
  N    -5.593288 -2.732835 -0.577409
  N    -5.581225  0.774073  0.020274
  N    -6.454028 -2.897968  3.224671
  N    -6.055813  0.866089  3.887476
  S    -7.095995 -3.308201  1.705499
  S    -6.818816  0.263600  2.448858
  S    -4.020608 -2.131575 -0.797900
  S    -4.078061  1.388837 -0.419439
  S    -4.819853 -2.367492  3.243186
  S    -4.443406  1.303496  3.618872
