16  
    
  C    -3.918095 -2.034700  1.730920
  C    -3.666422  2.040801  1.710807
  C    -5.176388 -2.391071  1.095142
  C    -4.816614  1.427359  1.138333
  N    -2.960508 -1.693104  0.852579
  N    -2.663668  2.270259  0.854302
  N    -5.048609 -2.577460 -0.210049
  N    -4.748617  1.395856 -0.178588
  N    -5.584878 -2.575914  3.583679
  N    -5.138332  1.200405  3.697299
  S    -6.478727 -2.791125  2.206653
  S    -6.031040  1.157281  2.312296
  S    -3.519088 -2.106018 -0.617351
  S    -3.219764  1.931966 -0.622978
  S    -4.009651 -1.980274  3.431247
  S    -3.760214  2.111953  3.521562
