16  
    
  C     1.783709  0.477362  3.131056
  C     2.077667  4.254590  3.339348
  C     0.567953  0.174147  2.402283
  C     0.727971  4.023650  2.722141
  N     2.816592  0.700907  2.314333
  N     3.017050  4.823894  2.516427
  N     0.676818  0.249655  1.082027
  N     0.864502  4.083531  1.374897
  N     0.017700  0.103335  4.980941
  N     0.251937  3.993470  5.168638
  S    -0.782228 -0.202967  3.437126
  S    -0.603620  3.683326  3.829150
  S     2.225271  0.622374  0.771645
  S     2.359070  4.559679  1.018777
  S     1.639680  0.568979  4.874548
  S     1.874735  4.370452  5.099865
