16  
    
  C    -1.610698 -1.108836  2.353450
  C    -1.789298  2.389924  2.319980
  C    -2.882651 -1.419849  1.764420
  C    -2.952678  1.873531  1.684616
  N    -0.633314 -1.140590  1.421822
  N    -0.822154  2.666592  1.478528
  N    -2.946366 -1.546226  0.416946
  N    -2.884944  1.750607  0.371854
  N    -3.276193 -0.930820  4.272299
  N    -3.588283  2.184933  4.148933
  S    -4.146091 -1.286387  2.919801
  S    -4.406887  1.744049  2.757343
  S    -1.375332 -1.286402 -0.038215
  S    -1.327999  2.192107 -0.012485
  S    -1.637801 -0.823647  4.057495
  S    -1.987850  2.590620  4.038173
