16  
    
  C    -3.035837 -1.655194  2.297745
  C    -3.361962  1.934522  2.007083
  C    -4.296895 -1.860537  1.623093
  C    -4.608016  1.422150  1.496832
  N    -1.991627 -1.526071  1.471195
  N    -2.410752  2.110686  1.092671
  N    -4.211789 -1.996730  0.317442
  N    -4.620796  1.360438  0.164851
  N    -4.825769 -1.804546  4.134554
  N    -4.892378  1.355114  4.014139
  S    -5.651785 -1.795687  2.653760
  S    -5.762983  1.058752  2.653457
  S    -2.601552 -1.819532 -0.085791
  S    -3.080734  1.752499 -0.345032
  S    -3.156545 -1.596421  4.070755
  S    -3.317407  1.878229  3.744938
