16  
    
  C    -0.005156 -0.599407  2.518046
  C    -0.238162  3.037895  2.590693
  C    -1.233749 -1.161556  1.914766
  C    -1.470514  2.592197  2.064872
  N     0.999508 -0.586535  1.645677
  N     0.756866  3.321719  1.756099
  N    -1.153714 -1.236068  0.576783
  N    -1.476133  2.536392  0.725182
  N    -1.653105 -0.734374  4.404434
  N    -1.920650  2.866657  4.587851
  S    -2.525410 -1.213381  3.044499
  S    -2.734348  2.351849  3.238397
  S     0.401692 -0.935062  0.117421
  S     0.075183  2.953347  0.242716
  S    -0.040493 -0.341891  4.218601
  S    -0.306758  3.428637  4.344850
