16  
    
  C    -0.810489 -0.790545  2.370658
  C    -0.821106  3.179048  2.393073
  C    -1.980426 -1.345514  1.696225
  C    -2.005214  2.638829  1.851985
  N     0.207985 -0.467238  1.541869
  N     0.209236  3.215840  1.554576
  N    -1.742087 -1.786808  0.440244
  N    -1.926710  2.413720  0.539584
  N    -2.727397 -0.878270  4.090638
  N    -2.429315  2.777650  4.371079
  S    -3.372101 -1.550221  2.683242
  S    -3.307064  2.601060  3.001544
  S    -0.177405 -1.229132  0.082655
  S    -0.419723  2.881025  0.069356
  S    -1.142785 -0.513996  4.051001
  S    -0.838058  3.257287  4.164556
