16  
    
  C     3.577937  1.675479  3.595660
  C     3.182607  5.148806  3.456948
  C     2.312143  1.266709  3.092774
  C     1.992616  4.662821  2.822083
  N     4.488385  1.898611  2.633779
  N     4.127503  5.509422  2.546933
  N     2.297637  1.229388  1.778654
  N     2.055727  4.479266  1.519725
  N     1.997635  1.358208  5.665468
  N     1.255958  5.115664  5.244727
  S     1.088330  1.016232  4.292485
  S     0.658478  4.329527  3.900500
  S     3.783938  1.662288  1.217335
  S     3.570762  5.066590  1.030711
  S     3.581884  1.871414  5.330770
  S     2.918971  5.461414  5.216795
