16  
    
  C    -2.506520 -1.848224  1.937318
  C    -3.189061  2.161057  1.744092
  C    -3.800005 -1.949299  1.334447
  C    -4.217074  1.443203  0.989174
  N    -1.539384 -1.905067  1.028256
  N    -2.104740  2.363208  0.995755
  N    -3.809322 -2.203868  0.039953
  N    -4.017293  1.309128 -0.322420
  N    -4.300748 -1.647343  3.850100
  N    -5.017078  1.581586  3.418220
  S    -5.198824 -1.857980  2.495116
  S    -5.584426  0.973984  1.959999
  S    -2.211073 -2.136254 -0.455083
  S    -2.513787  1.893628 -0.537932
  S    -2.637387 -1.510518  3.652613
  S    -3.426262  2.223995  3.434950
