16  
    
  C     0.623844  0.327469  3.109552
  C     0.729787  3.994551  2.941759
  C    -0.617671  0.099439  2.470229
  C    -0.452711  3.385374  2.392426
  N     1.664685  0.223557  2.308586
  N     1.768912  4.037508  2.121759
  N    -0.535202  0.062229  1.165277
  N    -0.369927  3.187167  1.090527
  N    -1.099839  0.203925  4.932600
  N    -1.136796  3.832507  4.806392
  S    -1.928791  0.251817  3.528373
  S    -1.847586  3.172613  3.460800
  S     1.029840  0.107691  0.780157
  S     1.179879  3.368893  0.683135
  S     0.563726  0.506079  4.825941
  S     0.468075  4.381279  4.621422
