16  
    
  C    -0.195532  0.153751  2.560075
  C    -0.025738  3.714011  2.459703
  C    -1.365524 -0.508263  2.092619
  C    -1.176227  2.970982  1.892391
  N     0.760453  0.247623  1.641586
  N     0.973335  3.906615  1.604745
  N    -1.377739 -0.769255  0.797732
  N    -1.049540  2.671864  0.626521
  N    -1.639907 -0.368333  4.558670
  N    -1.745140  3.488769  4.357495
  S    -2.589631 -0.753030  3.240695
  S    -2.558218  2.887451  3.066194
  S     0.141106 -0.368767  0.215045
  S     0.457404  3.174692  0.201318
  S    -0.028485  0.032516  4.237448
  S    -0.200784  4.034327  4.110719
