16  
    
  C    -4.941697 -2.563613  1.930265
  C    -5.312914  0.979108  1.750434
  C    -6.128197 -2.957997  1.260122
  C    -6.508999  0.478824  1.152555
  N    -3.882930 -2.466086  1.145478
  N    -4.224628  1.164766  0.979412
  N    -5.976806 -3.219519 -0.054061
  N    -6.454706  0.404269 -0.206866
  N    -6.791421 -2.517084  3.701479
  N    -7.167562  1.046370  3.653961
  S    -7.441546 -3.187435  2.312013
  S    -7.874842  0.587003  2.219924
  S    -4.373708 -2.880368 -0.351353
  S    -4.814207  0.832444 -0.582518
  S    -5.102781 -2.331270  3.656802
  S    -5.509569  1.335316  3.454369
