16  
    
  C    -2.925264 -1.679922  1.978011
  C    -2.615361  2.073690  2.012171
  C    -4.070957 -2.182115  1.259335
  C    -3.851267  1.885957  1.351640
  N    -1.855352 -1.396769  1.211570
  N    -1.536360  2.185889  1.225494
  N    -3.846444 -2.332584 -0.048287
  N    -3.763902  1.765134  0.026364
  N    -4.760783 -2.243970  3.713957
  N    -4.457905  1.990216  3.797887
  S    -5.420352 -2.550908  2.224988
  S    -5.232759  1.906496  2.368995
  S    -2.294023 -1.861724 -0.334478
  S    -2.227365  2.091296 -0.338276
  S    -3.221424 -1.695332  3.755496
  S    -2.872146  2.446692  3.726700
