16  
    
  C     0.824253 -0.088956  2.812052
  C     0.508441  3.464297  2.954728
  C    -0.481537 -0.188206  2.224649
  C    -0.846818  3.536487  2.365844
  N     1.810464  0.057120  1.910151
  N     1.486593  3.879000  2.122628
  N    -0.439476 -0.289530  0.894472
  N    -0.794791  3.771374  1.042772
  N    -0.822105 -0.214728  4.843513
  N    -1.169580  2.998347  4.885665
  S    -1.681432 -0.471040  3.454175
  S    -2.151549  3.160214  3.492941
  S     1.148284 -0.134233  0.367948
  S     0.747785  3.906638  0.619889
  S     0.787151 -0.011490  4.558763
  S     0.410579  3.364474  4.680660
