16  
    
  C    -1.349045 -0.682501  1.811518
  C    -1.197188  3.273750  2.129888
  C    -2.663874 -1.077728  1.517005
  C    -2.405564  2.688918  1.520847
  N    -0.458951 -0.571416  0.827326
  N    -0.338526  3.657797  1.211978
  N    -2.792591 -1.410410  0.225540
  N    -2.428558  2.652155  0.191957
  N    -2.759469 -0.622394  3.959628
  N    -2.831869  2.902478  4.095801
  S    -3.686211 -1.469858  2.862329
  S    -3.573387  2.243999  2.740021
  S    -1.323062 -1.069540 -0.522591
  S    -0.951346  3.266674 -0.297033
  S    -1.210391 -0.208979  3.453509
  S    -1.347432  3.645887  3.832483
