16  
    
  C    -2.102847 -1.051049  2.020896
  C    -2.671259  2.563665  2.119889
  C    -3.179650 -1.862495  1.437562
  C    -3.865998  2.067423  1.535164
  N    -1.176340 -0.661814  1.149674
  N    -1.663293  2.829942  1.309855
  N    -3.094190 -1.986389  0.120794
  N    -3.705434  1.694305  0.277361
  N    -3.562851 -1.870651  3.935187
  N    -4.368568  2.443568  4.057590
  S    -4.438869 -2.260662  2.597144
  S    -5.116914  1.841309  2.724611
  S    -1.666088 -1.232255 -0.332607
  S    -2.184804  2.231396 -0.208607
  S    -2.213762 -0.916161  3.709160
  S    -2.764328  2.853756  3.849515
