16  
    
  C    -0.173304 -0.340394  2.631174
  C     0.142519  3.439812  2.333379
  C    -1.422841 -0.578295  1.956765
  C    -1.159974  3.386298  1.732058
  N     0.865004 -0.315734  1.796052
  N     1.118597  3.567694  1.427762
  N    -1.364418 -0.604914  0.600947
  N    -1.126387  3.181082  0.408463
  N    -1.952441 -0.410785  4.562341
  N    -1.599557  3.396326  4.207869
  S    -2.730233 -0.741355  3.149864
  S    -2.414621  3.018079  2.851024
  S     0.254037 -0.465222  0.285670
  S     0.455247  3.541488 -0.066524
  S    -0.285649 -0.218537  4.441921
  S     0.061800  3.637218  4.078480
