16  
    
  C     1.487627  0.981208  3.278108
  C     1.530518  4.359990  3.462879
  C     0.256344  0.462528  2.686922
  C     0.207837  4.085977  2.942825
  N     2.516502  1.113968  2.436557
  N     2.463165  4.407425  2.533731
  N     0.332624  0.159871  1.411765
  N     0.098392  4.062015  1.625381
  N    -0.223427  0.813317  5.192872
  N    -0.116601  4.688117  5.447600
  S    -1.083230  0.565437  3.812650
  S    -0.992400  4.194024  4.151127
  S     1.885346  0.597526  0.938522
  S     1.714257  4.145736  1.026727
  S     1.302691  1.339213  5.020382
  S     1.530588  4.840210  5.113565
