16  
    
  C     0.358640  0.107973  2.779596
  C     0.178770  3.721874  2.796369
  C    -0.770508 -0.554146  2.154117
  C    -0.872200  3.054760  2.150092
  N     1.369484  0.310036  1.922313
  N     1.265911  3.955309  2.055190
  N    -0.680170 -0.758403  0.840710
  N    -0.711021  2.953452  0.855784
  N    -1.252943 -0.467359  4.647057
  N    -1.530659  3.018311  4.588449
  S    -2.086683 -0.729793  3.203903
  S    -2.294564  2.735556  3.096628
  S     0.829999 -0.252989  0.493385
  S     0.783455  3.569194  0.483868
  S     0.324889  0.076149  4.516946
  S    -0.025113  3.581066  4.567975
