16  
    
  C    -5.682166 -3.029748  1.471096
  C    -6.060765  0.960693  1.490849
  C    -6.860811 -3.515784  0.809678
  C    -7.145662  0.206449  0.918514
  N    -4.678034 -2.776292  0.616370
  N    -5.153254  1.311496  0.591369
  N    -6.841282 -3.706106 -0.495507
  N    -7.193302  0.090529 -0.412736
  N    -7.497954 -3.545514  3.284911
  N    -7.471189  0.171103  3.464566
  S    -8.171116 -3.849939  1.830019
  S    -8.299034 -0.285756  2.169768
  S    -5.298278 -3.254828 -0.897108
  S    -5.725354  0.792915 -0.925916
  S    -6.025789 -2.780670  3.202441
  S    -6.087798  1.012178  3.188516
