16  
    
  C     1.431348  0.976334  3.390659
  C     1.400694  4.514150  3.308648
  C     0.169942  0.607663  2.806392
  C     0.020451  4.229028  2.879536
  N     2.441955  0.858692  2.551107
  N     2.220555  4.823449  2.280726
  N     0.265330  0.296780  1.506937
  N     0.000109  3.924401  1.587987
  N    -0.228536  0.893667  5.306894
  N    -0.073676  4.440412  5.421722
  S    -1.062828  0.425075  3.967638
  S    -1.111116  4.108031  4.154638
  S     1.886345  0.339307  1.117898
  S     1.474956  4.297231  0.933652
  S     1.376066  1.289072  5.126057
  S     1.462396  4.661776  5.051378
