16  
    
  C    -4.597276 -2.412635  1.505366
  C    -4.452014  1.271824  1.891342
  C    -5.813274 -2.715454  0.818272
  C    -5.591089  0.721828  1.169669
  N    -3.593471 -2.002475  0.696122
  N    -3.483143  1.575005  1.035936
  N    -5.746541 -2.748937 -0.510116
  N    -5.608525  0.753091 -0.164081
  N    -6.459674 -2.956121  3.339113
  N    -6.132250  0.686858  3.803479
  S    -7.189590 -3.145266  1.868564
  S    -6.879414  0.353553  2.279984
  S    -4.212278 -2.127534 -0.858324
  S    -4.061479  1.335298 -0.487242
  S    -4.938720 -2.300354  3.196821
  S    -4.510775  1.125705  3.658383
