16  
    
  C     1.494567  0.741006  2.899497
  C     0.904398  4.022871  2.533405
  C     0.273552  0.300029  2.261184
  C    -0.293635  3.489157  1.823489
  N     2.506117  1.020446  2.092280
  N     1.853275  4.413052  1.727239
  N     0.311812  0.269153  0.903328
  N    -0.125675  3.202101  0.527235
  N    -0.154430  0.185793  4.699956
  N    -0.915985  3.734152  4.375979
  S    -1.037762  0.038126  3.375207
  S    -1.556988  3.138703  2.948761
  S     1.875740  0.673665  0.553107
  S     1.477280  3.722887  0.214747
  S     1.399918  0.792225  4.613003
  S     0.682102  4.324706  4.255106
