16  
    
  C     1.465961  1.012427  3.315530
  C     1.441530  4.323801  3.416297
  C     0.241394  0.590338  2.770149
  C     0.129004  4.188378  2.900061
  N     2.486129  1.010896  2.460447
  N     2.367721  4.499863  2.448970
  N     0.332530  0.229286  1.477202
  N     0.056149  3.949400  1.589234
  N    -0.257110  0.805783  5.284426
  N    -0.046597  4.657875  5.418511
  S    -1.084090  0.521958  3.867015
  S    -1.028603  4.167836  4.179735
  S     1.900088  0.496545  1.031691
  S     1.602746  4.236188  1.063351
  S     1.333067  1.320036  4.975218
  S     1.526626  4.791763  5.124049
