16  
    
  C    -1.368439 -0.916851  2.359998
  C    -1.552776  2.844836  2.016982
  C    -2.507486 -1.414766  1.556559
  C    -2.589423  1.997618  1.394884
  N    -0.269129 -0.715684  1.668358
  N    -0.504733  3.163122  1.263873
  N    -2.280597 -1.518242  0.273451
  N    -2.350435  1.815781  0.099981
  N    -3.291306 -1.514971  3.985560
  N    -3.361131  2.390480  3.867218
  S    -3.960636 -1.688335  2.510968
  S    -3.878864  1.640773  2.468848
  S    -0.678150 -1.026640  0.057328
  S    -0.827140  2.457637 -0.193745
  S    -1.755158 -0.889684  4.061007
  S    -1.874545  3.144799  3.729138
