16  
    
  C     3.204484  1.596314  3.762400
  C     3.215563  4.949674  3.493255
  C     2.027807  1.178077  3.078457
  C     1.967269  4.674685  2.764758
  N     4.202965  1.727186  2.876232
  N     4.217213  5.167776  2.664153
  N     2.103800  0.985058  1.755451
  N     2.098071  4.519618  1.439226
  N     1.323343  1.594880  5.527505
  N     1.397074  5.130817  5.204199
  S     0.584833  1.163867  4.059475
  S     0.568741  4.579368  3.792435
  S     3.684803  1.332678  1.424902
  S     3.742984  4.798838  1.142928
  S     2.998345  1.743290  5.487991
  S     3.058488  5.242449  5.159491
