16  
    
  C    -4.818072 -2.470497  1.879056
  C    -5.116339  1.180505  1.768787
  C    -5.989421 -3.000261  1.213016
  C    -6.292914  0.618391  1.155406
  N    -3.849206 -2.194071  1.035035
  N    -4.109680  1.393255  0.928566
  N    -5.862999 -3.187914 -0.105316
  N    -6.044758  0.289082 -0.112029
  N    -6.481545 -3.060770  3.699688
  N    -6.917309  0.929732  3.589020
  S    -7.297579 -3.221174  2.301986
  S    -7.580688  0.303469  2.291140
  S    -4.386969 -2.581969 -0.520563
  S    -4.493076  0.661893 -0.476831
  S    -5.060208 -2.183884  3.612285
  S    -5.374773  1.392992  3.493161
