16  
    
  C     1.409501  0.753646  2.974295
  C     0.993716  4.058554  2.641061
  C     0.180592  0.258340  2.366514
  C    -0.176297  3.629426  1.900629
  N     2.437999  1.014098  2.156476
  N     2.071551  4.415587  1.965960
  N     0.295949  0.112368  1.036905
  N     0.027402  3.469513  0.594408
  N    -0.318493  0.484587  4.865814
  N    -0.931295  3.832516  4.410748
  S    -1.187657  0.109567  3.517528
  S    -1.538966  3.137712  2.945116
  S     1.828220  0.615333  0.586805
  S     1.605773  4.057937  0.337997
  S     1.297309  0.776250  4.737858
  S     0.625156  4.406932  4.368097
