16  
    
  C    -2.113315 -0.899440  2.318414
  C    -1.976282  2.245879  2.028273
  C    -3.328490 -1.326950  1.680905
  C    -3.238635  2.001725  1.345186
  N    -1.060390 -0.937884  1.504709
  N    -0.983405  2.388057  1.164579
  N    -3.306415 -1.373274  0.340839
  N    -3.153476  1.755595  0.042069
  N    -3.853480 -1.130862  4.122174
  N    -3.796260  2.385274  3.821516
  S    -4.720406 -1.217136  2.727045
  S    -4.567576  1.809742  2.476993
  S    -1.714453 -1.273784 -0.016162
  S    -1.574783  2.136253 -0.344809
  S    -2.278469 -0.635944  3.989707
  S    -2.144219  2.486754  3.749670
