16  
    
  C    -4.147514 -2.041043  1.856504
  C    -4.153098  1.406398  1.737419
  C    -5.517367 -2.180441  1.360122
  C    -5.403476  1.184859  1.073855
  N    -3.223135 -2.034618  0.929311
  N    -3.044472  1.281959  1.015341
  N    -5.580297 -2.478902  0.050761
  N    -5.213874  1.160819 -0.236508
  N    -5.658112 -2.232805  3.938834
  N    -6.081091  1.544959  3.514751
  S    -6.657223 -2.280799  2.622351
  S    -6.841730  1.265575  2.070403
  S    -4.034453 -2.446852 -0.444313
  S    -3.612052  1.154180 -0.529506
  S    -4.073273 -2.041121  3.589131
  S    -4.414516  1.550311  3.488771
