16  
    
  C    -2.179614 -0.796996  2.293762
  C    -2.150315  2.447204  1.937365
  C    -3.385018 -1.296799  1.603686
  C    -3.379843  1.999935  1.403215
  N    -1.101134 -0.790006  1.527358
  N    -1.139989  2.586161  1.062780
  N    -3.187523 -1.648161  0.324583
  N    -3.351970  1.765488  0.093551
  N    -3.896042 -1.202232  4.157432
  N    -3.838692  2.352108  3.876882
  S    -4.747847 -1.270798  2.732503
  S    -4.688779  1.951891  2.541451
  S    -1.576241 -1.325960 -0.005501
  S    -1.783288  2.052515 -0.384399
  S    -2.307397 -0.739204  4.017894
  S    -2.221483  2.580107  3.689378
