16  
    
  C    -2.065283 -0.936995  2.317613
  C    -2.241099  2.490102  1.950311
  C    -3.263178 -1.389087  1.666723
  C    -3.462486  2.105018  1.357001
  N    -1.051673 -0.758076  1.455696
  N    -1.280201  2.583762  1.040277
  N    -3.125014 -1.709743  0.376935
  N    -3.466662  1.729220  0.062726
  N    -3.888816 -1.131423  4.079029
  N    -3.893795  2.378880  3.944436
  S    -4.673520 -1.396066  2.620216
  S    -4.749802  1.990117  2.548659
  S    -1.575154 -1.297939  0.004596
  S    -1.906240  2.057721 -0.414682
  S    -2.278297 -0.787344  3.983035
  S    -2.269696  2.686660  3.700920
