16  
    
  C    -4.804216 -2.538848  1.876453
  C    -5.163311  1.214549  1.747836
  C    -5.996554 -2.988451  1.206801
  C    -6.301950  0.580942  1.138381
  N    -3.836889 -2.175462  1.044503
  N    -4.123561  1.382823  0.944616
  N    -5.874788 -3.201587 -0.085726
  N    -6.070519  0.283119 -0.125084
  N    -6.521540 -3.018123  3.733947
  N    -6.926768  0.947125  3.602111
  S    -7.302722 -3.224490  2.307008
  S    -7.595172  0.336050  2.272901
  S    -4.368926 -2.594350 -0.519829
  S    -4.541163  0.662561 -0.466399
  S    -5.086627 -2.205445  3.614309
  S    -5.381430  1.379646  3.516830
