16  
    
  C    -1.428655 -0.638337  1.808706
  C    -1.289617  3.343758  2.068639
  C    -2.626125 -1.280009  1.442567
  C    -2.490765  2.750796  1.503062
  N    -0.502634 -0.610186  0.838967
  N    -0.320225  3.671265  1.215043
  N    -2.762337 -1.407557  0.118351
  N    -2.410810  2.595410  0.173671
  N    -2.673771 -0.864560  4.068074
  N    -2.909751  2.859189  3.999505
  S    -3.647909 -1.484338  2.828497
  S    -3.651522  2.199674  2.672297
  S    -1.287370 -1.112315 -0.526075
  S    -0.934814  3.251401 -0.292052
  S    -1.184945 -0.293836  3.562948
  S    -1.480009  3.642475  3.752827
