16  
    
  C     1.427374  0.996898  3.382820
  C     1.392955  4.545860  3.314891
  C     0.175574  0.613295  2.759743
  C     0.060535  4.200570  2.924988
  N     2.448006  0.881827  2.562691
  N     2.243501  4.753810  2.330185
  N     0.256257  0.310922  1.489113
  N    -0.000703  3.918570  1.637154
  N    -0.180844  0.891740  5.292972
  N    -0.077433  4.482985  5.442991
  S    -1.090738  0.421280  3.952843
  S    -1.128535  4.115731  4.159651
  S     1.895227  0.345586  1.112155
  S     1.495009  4.303308  0.927776
  S     1.381502  1.299385  5.128612
  S     1.493745  4.670147  5.044891
