16  
    
  C     1.989034  1.055035  3.008664
  C     2.259326  4.336475  3.066839
  C     0.799490  0.506526  2.388563
  C     1.023807  4.139374  2.279968
  N     2.989255  1.242169  2.131641
  N     3.390536  4.348950  2.353558
  N     0.960481  0.159644  1.091733
  N     1.348663  3.717553  1.062355
  N     0.177270  1.092846  4.814073
  N     0.204472  4.462755  4.679370
  S    -0.567045  0.653333  3.458341
  S    -0.360241  3.811840  3.212537
  S     2.441925  0.644526  0.710880
  S     2.913854  3.995921  0.821746
  S     1.862593  1.312691  4.748558
  S     1.894402  4.680228  4.763656
