16  
    
  C     1.798377  0.447237  3.140540
  C     1.981244  4.406878  3.348893
  C     0.557458  0.151503  2.418987
  C     0.781784  3.970784  2.688104
  N     2.867711  0.694430  2.387715
  N     2.945013  4.824237  2.564595
  N     0.700163  0.255312  1.095455
  N     0.836916  3.996624  1.386810
  N    -0.037040  0.021400  4.920771
  N     0.283561  4.002016  5.237087
  S    -0.801170 -0.243231  3.445848
  S    -0.551457  3.700134  3.807449
  S     2.280271  0.671115  0.824359
  S     2.399953  4.612407  0.982242
  S     1.615252  0.611952  4.871910
  S     1.911205  4.400424  5.066160
