16  
    
  C     3.544243  2.167840  3.579238
  C     3.439285  5.287110  3.506387
  C     2.446241  1.596413  2.886015
  C     2.167830  4.981347  2.921839
  N     4.607499  2.282935  2.837504
  N     4.393618  5.618155  2.660810
  N     2.701305  1.340172  1.604057
  N     2.224262  4.829260  1.591849
  N     1.847659  1.802655  5.422310
  N     1.625466  4.890811  5.496534
  S     1.144828  1.339166  4.002902
  S     0.923499  4.568674  4.039880
  S     4.280256  1.708693  1.348234
  S     3.788308  5.146150  1.122488
  S     3.446985  2.172432  5.318936
  S     3.230900  5.354815  5.327269
