16  
    
  C     3.640791  1.763572  3.613643
  C     3.184434  5.178570  3.434547
  C     2.388218  1.316979  3.022914
  C     2.003178  4.715644  2.822720
  N     4.613499  1.951805  2.772351
  N     4.182568  5.557467  2.697703
  N     2.422270  1.302978  1.701839
  N     2.145261  4.544755  1.501112
  N     2.037120  1.267970  5.528998
  N     1.431274  5.126915  5.303665
  S     1.127248  1.187353  4.171050
  S     0.725816  4.421727  3.993004
  S     3.908571  1.729427  1.209566
  S     3.628280  5.153824  1.161220
  S     3.470499  2.092916  5.363978
  S     3.079498  5.379386  5.125541
