16  
    
  C     1.392054  0.749456  3.441829
  C     1.276227  4.461537  3.146280
  C     0.153944  0.272501  2.864342
  C    -0.081039  4.152094  2.620559
  N     2.394949  0.891455  2.551921
  N     2.265873  4.690086  2.286712
  N     0.224324 -0.049255  1.563059
  N    -0.053713  4.027265  1.294857
  N    -0.232056  0.966493  5.364088
  N    -0.315901  4.161435  5.162215
  S    -1.137127  0.505965  4.002454
  S    -1.275298  3.850242  3.898968
  S     1.771756  0.350227  1.098467
  S     1.470870  4.408897  0.809383
  S     1.437619  1.235964  5.095093
  S     1.265163  4.641274  4.883905
