16  
    
  C    -4.874582 -2.461436  1.889304
  C    -5.222994  1.081591  1.806293
  C    -6.000758 -3.079421  1.267032
  C    -6.425414  0.610029  1.180692
  N    -3.806792 -2.307113  1.093559
  N    -4.207662  1.289760  0.963433
  N    -5.864261 -3.139328 -0.040971
  N    -6.225957  0.219514 -0.052875
  N    -6.719709 -2.700502  3.720752
  N    -7.066776  1.028385  3.598228
  S    -7.420612 -3.272916  2.328783
  S    -7.789893  0.438357  2.191921
  S    -4.338591 -2.711392 -0.430602
  S    -4.710107  0.759009 -0.509064
  S    -5.074356 -2.320450  3.603908
  S    -5.375025  1.354236  3.515934
