16  
    
  C     2.499439  1.106203  3.307938
  C     2.967093  5.379967  3.738821
  C     1.333461  0.613672  2.592381
  C     1.633116  5.038913  3.240404
  N     3.560791  1.324251  2.528291
  N     3.950350  5.138572  2.849515
  N     1.569653  0.512215  1.281451
  N     1.607484  4.830338  1.913657
  N     0.715074  0.705011  5.060121
  N     1.328136  5.455227  5.746591
  S     0.009071  0.204103  3.658499
  S     0.366709  5.444424  4.359796
  S     3.178228  0.962413  1.019915
  S     3.195887  4.608196  1.534020
  S     2.277054  1.292764  5.040688
  S     3.011460  5.613048  5.440788
