16  
    
  C     3.778516  1.873677  3.719104
  C     3.603177  5.385593  3.569601
  C     2.584745  1.568997  2.930326
  C     2.372034  4.914968  2.909225
  N     4.882092  2.167101  3.043172
  N     4.647596  5.628928  2.779782
  N     2.791917  1.450191  1.636686
  N     2.488495  5.040780  1.573238
  N     1.897053  1.768959  5.450442
  N     1.762932  5.241335  5.458337
  S     1.212160  1.633262  3.934690
  S     1.056517  4.910443  4.066291
  S     4.380056  1.935956  1.399917
  S     4.068598  5.371485  1.188569
  S     3.498965  2.278401  5.416903
  S     3.387868  5.431000  5.323485
