16  
    
  C    -3.844693 -2.318780  1.625649
  C    -3.524297  2.015315  1.613631
  C    -5.155880 -2.452503  1.017219
  C    -4.685210  1.389296  1.010731
  N    -2.843381 -1.897192  0.793225
  N    -2.565457  2.159717  0.735330
  N    -5.057945 -2.450517 -0.293234
  N    -4.623965  1.233095 -0.311096
  N    -5.633656 -2.430410  3.570814
  N    -5.204740  1.543462  3.603647
  S    -6.489298 -2.726606  2.178477
  S    -5.915395  0.967848  2.210705
  S    -3.529908 -2.028358 -0.732110
  S    -3.111424  1.732558 -0.742227
  S    -3.957134 -2.447670  3.414385
  S    -3.667703  2.128958  3.337272
