16  
    
  C    -1.050823 -0.763722  2.289048
  C    -0.724330  2.928475  2.569144
  C    -2.273423 -1.229854  1.641177
  C    -1.966616  2.490672  1.931028
  N    -0.013986 -0.713669  1.446937
  N     0.331934  3.042804  1.753166
  N    -2.057157 -1.713377  0.388477
  N    -1.868467  2.490162  0.612730
  N    -2.900696 -0.630875  4.007824
  N    -2.542738  2.885533  4.395528
  S    -3.491115 -1.570198  2.799426
  S    -3.335793  2.441906  3.000192
  S    -0.489912 -1.318086 -0.021655
  S    -0.261947  2.683182  0.217636
  S    -1.264266 -0.255872  3.920996
  S    -0.927106  3.286780  4.249772
