16  
    
  C    -2.981899 -1.584965  1.991099
  C    -2.542257  2.028839  2.048481
  C    -4.039145 -2.234485  1.243635
  C    -3.849648  1.844208  1.385201
  N    -1.951551 -1.354267  1.203804
  N    -1.543049  2.165278  1.190954
  N    -3.895631 -2.280973 -0.072965
  N    -3.767858  1.665929  0.070480
  N    -4.748181 -2.245833  3.769618
  N    -4.401936  2.080129  3.848147
  S    -5.404457 -2.572289  2.271077
  S    -5.226864  1.982308  2.407377
  S    -2.280786 -1.819150 -0.347805
  S    -2.182110  2.029836 -0.326830
  S    -3.210486 -1.684197  3.739592
  S    -2.774628  2.415950  3.697617
