16  
    
  C     1.401225  0.908349  3.264512
  C     1.201495  4.480014  3.092835
  C     0.117214  0.425092  2.757513
  C    -0.018695  3.957361  2.432448
  N     2.356680  0.908651  2.353208
  N     2.232080  4.590748  2.282678
  N     0.123882 -0.028857  1.507948
  N     0.078920  3.932609  1.111062
  N    -0.291782  0.906235  5.318645
  N    -0.607518  4.144524  4.853173
  S    -1.189836  0.376169  3.923464
  S    -1.403032  3.645809  3.409826
  S     1.676506  0.215766  0.953475
  S     1.630468  4.426511  0.696079
  S     1.362718  1.201223  5.022749
  S     0.982234  4.440187  4.789598
