16  
    
  C    -2.675670 -1.880687  1.993912
  C    -2.906732  2.257306  1.856791
  C    -3.927236 -2.001247  1.296147
  C    -4.064892  1.685944  1.133794
  N    -1.561413 -1.878699  1.231892
  N    -1.931961  2.663249  1.064485
  N    -3.781690 -2.231746 -0.002408
  N    -3.870547  1.637307 -0.177308
  N    -4.602242 -1.866267  3.708280
  N    -4.783489  1.770865  3.587126
  S    -5.330577 -2.194068  2.261005
  S    -5.465987  1.426013  2.130223
  S    -2.197433 -2.117051 -0.333956
  S    -2.361234  2.283040 -0.525250
  S    -2.928690 -1.744019  3.735678
  S    -3.223039  2.326465  3.627495
