16  
    
  C     1.571653  0.715525  2.853470
  C     0.890895  3.915313  2.505967
  C     0.352365  0.229720  2.255488
  C    -0.321288  3.483445  1.900708
  N     2.579920  0.780496  2.010180
  N     1.994001  4.005651  1.768338
  N     0.493082 -0.202435  1.001525
  N    -0.215716  3.359152  0.566912
  N    -0.289820  0.724489  4.744678
  N    -0.851625  3.559993  4.363081
  S    -0.979383  0.259886  3.324646
  S    -1.632886  3.181138  2.975205
  S     2.079110  0.124580  0.528860
  S     1.372341  3.714435  0.206796
  S     1.332727  1.153373  4.568445
  S     0.719862  4.067959  4.232119
