16  
    
  C    -3.979471 -1.937645  1.740148
  C    -3.682545  1.888110  1.843174
  C    -5.211208 -2.340159  1.057417
  C    -4.836720  1.350659  1.222050
  N    -2.965319 -1.694697  0.904899
  N    -2.728087  2.147344  0.962106
  N    -5.037595 -2.548212 -0.218992
  N    -4.864589  1.378363 -0.094384
  N    -5.788289 -2.002038  3.522308
  N    -5.328171  1.398124  3.708125
  S    -6.378544 -2.798187  2.178004
  S    -6.195051  1.153122  2.292130
  S    -3.481909 -2.093302 -0.583413
  S    -3.320989  1.894268 -0.507220
  S    -4.171798 -1.702909  3.464768
  S    -3.729297  1.945714  3.546705
