16  
    
  C     2.343285  0.803780  3.522540
  C     1.932392  5.144613  3.071067
  C     1.015578  0.686485  2.941713
  C     0.854595  4.384225  2.405913
  N     3.383312  0.687909  2.701924
  N     2.982302  5.453712  2.318228
  N     1.018468  0.660058  1.629003
  N     1.081682  4.197360  1.128767
  N     0.632902  1.121162  5.401078
  N     0.052700  4.743113  4.813120
  S    -0.251653  0.477190  4.131657
  S    -0.587769  4.111709  3.350955
  S     2.671274  0.632000  1.172325
  S     2.597091  4.753314  0.845943
  S     2.290578  1.097343  5.213562
  S     1.636200  5.214914  4.787635
