16  
    
  C    -2.688060 -1.675354  1.934950
  C    -3.127715  1.910208  1.780341
  C    -3.945617 -1.905594  1.313670
  C    -4.212719  1.325691  1.027786
  N    -1.646903 -1.721807  1.137944
  N    -2.152435  2.310456  1.004844
  N    -3.885470 -2.141832  0.024830
  N    -3.983328  1.167578 -0.267583
  N    -4.345953 -1.664446  3.847560
  N    -5.049947  1.573972  3.457177
  S    -5.213231 -1.885469  2.503988
  S    -5.688850  1.102262  2.020881
  S    -2.239653 -2.038635 -0.387207
  S    -2.442207  1.864307 -0.543649
  S    -2.700547 -1.457410  3.617926
  S    -3.540560  2.191109  3.406824
