16  
    
  C    -0.345992 -0.119070  2.533180
  C    -0.332500  3.246565  2.528607
  C    -1.397371 -0.852712  1.804756
  C    -1.588909  2.784590  1.997045
  N     0.767286  0.009216  1.825132
  N     0.603729  3.482951  1.632344
  N    -1.199212 -1.087913  0.531900
  N    -1.573566  2.676681  0.679952
  N    -2.132437 -0.614084  4.283335
  N    -2.055827  3.201906  4.529780
  S    -2.769103 -1.000738  2.797824
  S    -2.906342  2.845225  3.093351
  S     0.419608 -0.556158  0.274530
  S    -0.024278  3.002042  0.167085
  S    -0.560712 -0.098127  4.297487
  S    -0.430022  3.485379  4.252385
