16  
    
  C     2.272724  1.035346  3.458312
  C     2.206801  4.798146  3.150041
  C     1.009187  0.671686  2.851745
  C     0.976414  4.374460  2.520781
  N     3.274311  1.228743  2.585978
  N     3.210654  5.041478  2.320630
  N     0.986600  0.626881  1.540434
  N     0.977025  4.409069  1.188723
  N     0.454643  0.852618  5.355458
  N     0.495779  4.294459  5.106671
  S    -0.279617  0.482047  3.947835
  S    -0.286515  4.035042  3.644632
  S     2.539814  1.007577  1.041163
  S     2.481677  4.956332  0.794429
  S     2.026736  1.371962  5.195698
  S     2.082801  4.684498  4.910162
