16  
    
  C    -0.059643 -0.367913  2.420624
  C    -0.366006  3.403937  2.620024
  C    -1.235114 -0.996695  1.833377
  C    -1.655516  3.134443  2.046266
  N     0.982236 -0.286652  1.602816
  N     0.668149  3.376914  1.782576
  N    -1.147799 -0.938584  0.541253
  N    -1.622242  3.009654  0.722861
  N    -1.898580 -0.604061  4.258678
  N    -2.066401  3.224783  4.620109
  S    -2.577503 -1.305688  2.933018
  S    -2.907590  2.896759  3.193111
  S     0.380237 -0.611526  0.047193
  S    -0.053308  3.243912  0.254243
  S    -0.350600 -0.001426  4.073725
  S    -0.410093  3.653443  4.382176
