16  
    
  C    -1.257221 -0.830244  2.121599
  C    -1.492598  3.022639  2.056988
  C    -2.481815 -1.376383  1.525787
  C    -2.602063  2.362528  1.331915
  N    -0.249427 -0.678965  1.296465
  N    -0.588938  3.471320  1.167719
  N    -2.428627 -1.451794  0.228616
  N    -2.393790  2.111537  0.015329
  N    -3.134292 -1.031587  4.012500
  N    -3.256971  2.624685  3.799866
  S    -3.840771 -1.645627  2.611947
  S    -3.885080  1.913977  2.438462
  S    -0.871806 -0.986869 -0.247054
  S    -0.943053  2.879358 -0.328288
  S    -1.457338 -0.781053  3.844367
  S    -1.811980  3.422240  3.705864
