16  
    
  C    -1.059473 -0.742235  2.332042
  C    -0.724344  3.024568  2.669661
  C    -2.305106 -1.298055  1.721893
  C    -1.958767  2.673359  2.077562
  N    -0.041817 -0.594401  1.488474
  N     0.296469  3.306682  1.865769
  N    -2.086339 -1.604936  0.469651
  N    -1.761136  2.283494  0.813225
  N    -2.760947 -0.866953  4.218658
  N    -2.528359  3.067042  4.633603
  S    -3.642011 -1.223935  2.834278
  S    -3.318829  2.742868  3.153152
  S    -0.570393 -1.102838  0.012190
  S    -0.181350  2.629382  0.426929
  S    -1.208610 -0.367273  4.003302
  S    -0.836328  3.345384  4.385472
