16  
    
  C     3.443814  1.673396  3.563201
  C     3.001978  5.291221  3.370494
  C     2.167778  1.233539  3.095314
  C     1.858028  4.613230  2.761995
  N     4.343430  1.904452  2.608111
  N     4.040507  5.467996  2.604397
  N     2.166883  1.055657  1.763031
  N     2.027882  4.449925  1.460075
  N     1.963011  1.460872  5.663053
  N     1.323685  4.814008  5.238704
  S     1.079226  0.926170  4.366671
  S     0.581084  4.316918  3.850387
  S     3.697467  1.483928  1.230837
  S     3.618597  4.952960  1.136274
  S     3.587975  1.691935  5.338748
  S     2.818311  5.530015  5.042973
