16  
    
  C     0.101649 -0.022705  2.653953
  C     0.035280  3.663829  2.613653
  C    -1.120224 -0.578058  2.112545
  C    -1.031236  2.854076  2.049991
  N     1.048112  0.189836  1.761380
  N     1.067011  3.824675  1.769813
  N    -1.104534 -0.671292  0.807966
  N    -0.974932  2.798389  0.706978
  N    -1.605538 -0.361809  4.637904
  N    -1.791911  3.379967  4.412153
  S    -2.423131 -0.906916  3.271662
  S    -2.370770  2.573748  3.090464
  S     0.377669 -0.175515  0.285365
  S     0.578198  3.174539  0.319676
  S    -0.157777  0.392234  4.337599
  S    -0.283387  4.045472  4.276386
