16  
    
  C     2.351509  0.816159  3.528992
  C     1.917304  5.177387  3.090003
  C     1.031165  0.693851  2.946077
  C     0.896837  4.351366  2.440131
  N     3.387822  0.697692  2.690769
  N     2.979181  5.424365  2.290372
  N     1.036978  0.657023  1.605487
  N     1.090880  4.176442  1.146745
  N     0.630832  1.122355  5.435132
  N     0.083722  4.699149  4.784316
  S    -0.237620  0.474742  4.100011
  S    -0.582103  4.129723  3.362582
  S     2.646196  0.627003  1.184043
  S     2.575978  4.744807  0.830516
  S     2.291150  1.088373  5.215087
  S     1.626062  5.190728  4.762427
