16  
    
  C     1.600891  0.835366  3.245202
  C     2.043558  4.539474  3.234154
  C     0.541119  0.213034  2.481622
  C     0.853895  3.988118  2.670110
  N     2.622816  1.178741  2.526198
  N     3.093568  4.700037  2.398728
  N     0.831243  0.089737  1.183088
  N     0.920654  3.961777  1.354457
  N    -0.219004  0.385364  4.959156
  N     0.256798  4.348017  5.188630
  S    -0.912603 -0.059791  3.527061
  S    -0.542827  3.775059  3.854975
  S     2.337880  0.738728  0.958714
  S     2.439953  4.255556  0.920709
  S     1.266334  1.080524  4.990285
  S     1.828269  4.946670  4.966562
