16  
    
  C     2.735604  1.122677  3.536843
  C     2.954822  4.805800  3.683520
  C     1.560881  0.687519  2.801487
  C     1.642773  4.968310  3.086430
  N     3.735404  1.547527  2.764648
  N     3.950060  4.903777  2.800888
  N     1.726198  0.769659  1.487412
  N     1.635526  4.878837  1.762545
  N     0.748753  0.840616  5.199371
  N     1.282446  5.514263  5.494296
  S     0.101949  0.410098  3.694721
  S     0.328469  5.260976  4.178504
  S     3.215930  1.355647  1.208945
  S     3.178065  4.815858  1.291205
  S     2.421985  1.058133  5.281969
  S     2.918342  5.352183  5.364942
