16  
    
  C     2.071856  0.610773  3.205882
  C     2.037547  4.361991  3.076226
  C     0.763029  0.305072  2.624692
  C     0.783178  4.092874  2.371698
  N     3.046620  0.684810  2.304704
  N     3.022116  4.414464  2.227870
  N     0.793123  0.044346  1.338477
  N     0.877276  3.616083  1.127384
  N     0.407390  0.873319  5.151704
  N     0.288347  4.349637  4.903347
  S    -0.538680  0.669040  3.730630
  S    -0.516933  3.928468  3.534370
  S     2.388967  0.343679  0.798541
  S     2.538777  3.987021  0.676321
  S     2.050336  0.923851  4.899440
  S     1.920914  4.812718  4.714460
