16  
    
  C     1.585787  0.721968  2.835600
  C     0.948719  3.814813  2.536872
  C     0.386095  0.179745  2.251654
  C    -0.308317  3.558072  1.906273
  N     2.600983  0.786145  1.978078
  N     1.935242  3.995998  1.651415
  N     0.498007 -0.164366  0.930552
  N    -0.174533  3.273305  0.615662
  N    -0.159275  0.691048  4.690255
  N    -0.824436  3.549771  4.441976
  S    -0.956750  0.194427  3.352935
  S    -1.639213  3.183089  3.010109
  S     2.038867  0.253642  0.536581
  S     1.335601  3.713076  0.173033
  S     1.368921  1.134667  4.522783
  S     0.695259  4.115977  4.198543
