16  
    
  C     2.680676  1.080067  3.176875
  C     2.622089  4.913733  3.585482
  C     1.457522  0.679980  2.542673
  C     1.403846  4.352359  2.973565
  N     3.693805  1.146711  2.303474
  N     3.513179  5.299447  2.663843
  N     1.522980  0.536511  1.237402
  N     1.559104  3.891563  1.736452
  N     0.761614  0.907299  4.939483
  N     0.887421  4.624988  5.465307
  S     0.058795  0.359752  3.528000
  S     0.018875  4.249345  4.049583
  S     3.126224  0.778230  0.818830
  S     2.902015  4.680977  1.206376
  S     2.418528  1.315009  4.875130
  S     2.415737  5.254754  5.300547
