16  
    
  C    -4.034588 -1.777778  1.618212
  C    -3.848761  1.477393  1.712043
  C    -5.240399 -2.253193  1.045352
  C    -5.180654  1.358977  1.090460
  N    -2.950132 -1.848107  0.869588
  N    -2.877008  1.577476  0.799316
  N    -5.106313 -2.509147 -0.255282
  N    -5.078387  1.077209 -0.212537
  N    -5.779867 -1.935196  3.580024
  N    -5.683669  1.538547  3.649901
  S    -6.536236 -2.263338  2.124369
  S    -6.521006  1.372528  2.226786
  S    -3.491971 -2.318846 -0.615387
  S    -3.478676  1.287927 -0.676001
  S    -4.177759 -1.664970  3.430188
  S    -4.045859  1.689860  3.450075
