16  
    
  C     2.658300  1.130512  3.528909
  C     2.968107  4.979756  3.688899
  C     1.532906  0.681165  2.713807
  C     1.640553  4.957315  3.115790
  N     3.710219  1.480199  2.808020
  N     3.930285  4.868184  2.765576
  N     1.657634  0.704495  1.394192
  N     1.585812  4.885888  1.785756
  N     0.738662  0.844707  5.121494
  N     1.259351  5.555431  5.650971
  S     0.142784  0.342086  3.634772
  S     0.386973  5.316754  4.237457
  S     3.167526  1.299988  1.139323
  S     3.172511  4.746755  1.267748
  S     2.394013  1.077116  5.265035
  S     2.921975  5.387738  5.396305
