16  
    
  C     0.713488  0.319921  3.089600
  C     0.678014  3.901959  2.989454
  C    -0.569660  0.190517  2.467591
  C    -0.547482  3.471708  2.367609
  N     1.757595  0.345661  2.277940
  N     1.683882  3.999194  2.110689
  N    -0.537726  0.016490  1.136368
  N    -0.368778  2.871816  1.165739
  N    -1.104716  0.232106  4.997522
  N    -1.161659  3.931370  4.802926
  S    -1.937377  0.285634  3.562936
  S    -1.824678  3.209919  3.475422
  S     1.086001  0.129822  0.760352
  S     1.161179  3.376964  0.684799
  S     0.534888  0.487191  4.789967
  S     0.441348  4.402078  4.657723
