16  
    
  C    -0.817299 -0.739913  2.424915
  C    -0.838910  2.990938  2.440901
  C    -2.005452 -1.296819  1.673275
  C    -2.103208  2.759608  1.849577
  N     0.250507 -0.602635  1.664911
  N     0.166823  3.248422  1.587377
  N    -1.770961 -1.525789  0.417041
  N    -2.042314  2.585722  0.511454
  N    -2.721704 -0.856258  4.118234
  N    -2.561080  2.890545  4.420877
  S    -3.306917 -1.625488  2.775688
  S    -3.406368  2.641495  2.993278
  S    -0.173373 -1.082077  0.113087
  S    -0.441692  2.840768  0.089186
  S    -1.072158 -0.589316  4.109414
  S    -0.939535  3.365191  4.149449
