16  
    
  C    -3.016649 -1.847159  2.193819
  C    -3.314496  1.688221  2.040212
  C    -4.294276 -1.840078  1.543808
  C    -4.573989  1.242919  1.528741
  N    -1.949361 -1.902212  1.374463
  N    -2.394594  1.819367  1.104309
  N    -4.234019 -1.990714  0.229029
  N    -4.676418  1.276335  0.201660
  N    -4.692632 -1.962637  4.146008
  N    -4.947655  1.495872  4.026824
  S    -5.564217 -2.043611  2.707651
  S    -5.827578  1.111236  2.703844
  S    -2.597294 -1.955913 -0.173124
  S    -3.131661  1.598168 -0.334670
  S    -3.084874 -1.652066  3.904832
  S    -3.374620  1.801418  3.743702
