16  
    
  C    -0.312934 -0.321965  2.369218
  C    -0.369774  3.427101  2.810671
  C    -1.534954 -0.946890  1.795284
  C    -1.605809  3.104366  2.174768
  N     0.705188 -0.163497  1.516221
  N     0.655876  3.712337  2.020108
  N    -1.383517 -1.145208  0.476623
  N    -1.444567  2.800727  0.894477
  N    -1.989637 -0.650842  4.303867
  N    -2.124774  3.175075  4.755603
  S    -2.839851 -1.153945  2.952250
  S    -2.950542  2.909646  3.269725
  S     0.144543 -0.702318  0.040905
  S     0.138988  3.241724  0.502471
  S    -0.412736 -0.292056  4.088330
  S    -0.520234  3.776820  4.530516
