16  
    
  C     2.512025  1.071849  3.249908
  C     2.452385  4.768688  3.463460
  C     1.291256  0.815755  2.534171
  C     1.349023  4.143301  2.757771
  N     3.582542  1.294305  2.473243
  N     3.533199  4.996304  2.686784
  N     1.461976  0.938409  1.232065
  N     1.533731  4.245838  1.447700
  N     0.603556  0.726717  5.034260
  N     0.598628  4.378857  5.201403
  S    -0.075244  0.264425  3.567144
  S    -0.133257  3.933554  3.734429
  S     3.051152  1.224644  0.924742
  S     3.056666  4.796646  1.101428
  S     2.311899  0.983904  4.998948
  S     2.130719  4.896050  5.205671
