16  
    
  C    -4.234480 -2.209584  2.078058
  C    -4.145077  1.377834  1.939895
  C    -5.544980 -2.410122  1.477769
  C    -5.385791  1.172737  1.220353
  N    -3.241234 -2.071810  1.202233
  N    -3.107312  1.429808  1.120356
  N    -5.523362 -2.433026  0.160061
  N    -5.284573  1.040688 -0.098533
  N    -5.898093 -1.999693  4.016774
  N    -6.022590  1.423763  3.794939
  S    -6.794859 -2.463797  2.659902
  S    -6.776818  1.136231  2.326710
  S    -3.981000 -2.155880 -0.284446
  S    -3.719027  1.193430 -0.442522
  S    -4.226330 -1.820140  3.781458
  S    -4.357148  1.595691  3.634325
