16  
    
  C    -1.111273 -0.713837  2.218781
  C    -0.687049  2.906228  2.640795
  C    -2.223493 -1.346700  1.670850
  C    -1.965478  2.635104  1.991135
  N    -0.050608 -0.708499  1.446057
  N     0.326881  3.092774  1.759677
  N    -2.118192 -1.651696  0.394865
  N    -1.823692  2.345305  0.682753
  N    -2.854416 -0.649858  4.098215
  N    -2.592588  2.950598  4.469099
  S    -3.515401 -1.479675  2.784461
  S    -3.347044  2.503505  2.996945
  S    -0.564965 -1.281669 -0.017544
  S    -0.269446  2.679082  0.261936
  S    -1.260875 -0.276278  3.972158
  S    -0.914132  3.289790  4.313662
