16  
    
  C     2.994112  1.575977  3.470816
  C     2.939076  5.142545  3.193248
  C     1.816322  0.923276  2.948813
  C     1.752763  4.552248  2.683385
  N     3.902758  1.835437  2.498530
  N     3.812940  5.527613  2.244207
  N     1.807581  0.688443  1.656363
  N     1.793707  4.235434  1.388947
  N     1.135834  1.468452  5.300396
  N     1.305915  4.766303  5.278593
  S     0.480464  0.657484  3.978585
  S     0.544834  4.161260  3.878616
  S     3.272763  1.227533  1.118328
  S     3.290057  4.839605  0.821230
  S     2.741452  1.814339  5.165758
  S     2.741769  5.478515  4.927472
