16  
    
  C     1.119304 -0.008661  2.912517
  C     0.848773  3.836871  2.933239
  C    -0.162244 -0.383020  2.468613
  C    -0.400044  3.286886  2.398922
  N     2.005241  0.201942  1.946240
  N     1.820549  3.815966  2.015830
  N    -0.291629 -0.541079  1.167003
  N    -0.402655  3.191134  1.065329
  N    -0.444799 -0.112081  5.047308
  N    -0.701646  3.814742  4.956800
  S    -1.380851 -0.516581  3.755161
  S    -1.578230  3.362050  3.633451
  S     1.220087 -0.162082  0.529494
  S     1.210108  3.380426  0.592624
  S     1.081852  0.277356  4.653200
  S     0.904388  4.230078  4.647556
