16  
    
  C     2.251639  1.027125  3.475666
  C     2.137800  4.836784  3.179497
  C     0.984158  0.643891  2.876810
  C     0.904782  4.523750  2.493293
  N     3.197429  1.132868  2.553635
  N     3.050595  5.252394  2.333718
  N     0.975141  0.586007  1.563888
  N     0.981185  4.423297  1.169916
  N     0.512786  0.990868  5.372544
  N     0.409980  4.367564  4.998411
  S    -0.320895  0.449997  3.981796
  S    -0.386544  4.090682  3.550503
  S     2.529391  0.925761  1.078778
  S     2.542614  4.902392  0.801602
  S     2.090870  1.370989  5.200453
  S     2.077605  4.697235  4.923842
