16  
    
  C     2.841562  1.539569  3.556308
  C     2.935565  5.218551  3.385370
  C     1.640919  0.908268  3.019811
  C     1.782399  4.620978  2.756121
  N     3.829622  1.721030  2.673266
  N     3.872263  5.607691  2.530293
  N     1.685954  0.588845  1.742335
  N     1.847364  4.617882  1.436381
  N     1.170714  1.323217  5.520491
  N     1.140607  4.982107  5.280407
  S     0.404015  0.628219  4.228155
  S     0.432809  4.312727  3.933020
  S     3.168922  1.009611  1.227177
  S     3.380589  5.156341  0.992401
  S     2.691994  1.934127  5.214948
  S     2.710705  5.401425  5.118370
