16  
    
  C    -3.089230 -1.667717  1.856298
  C    -3.527649  1.585631  2.122379
  C    -4.236522 -2.358763  1.354517
  C    -4.683092  1.161857  1.379322
  N    -2.144888 -1.549781  0.947681
  N    -2.415377  1.598886  1.392737
  N    -4.204642 -2.637636  0.035858
  N    -4.466790  0.790716  0.102457
  N    -4.674782 -2.053327  3.862116
  N    -5.370641  1.400209  3.865771
  S    -5.557155 -2.532254  2.513932
  S    -6.148785  1.092952  2.377982
  S    -2.693676 -2.173915 -0.442617
  S    -2.862477  1.140402 -0.152143
  S    -3.143051 -1.486307  3.553080
  S    -3.740250  1.905417  3.839261
