16  
    
  C    -2.263492 -1.056683  2.036490
  C    -2.622373  2.468798  2.264496
  C    -3.242023 -1.946495  1.464935
  C    -3.833979  1.849761  1.686366
  N    -1.306624 -0.677816  1.189843
  N    -1.702272  2.893805  1.383041
  N    -3.151924 -2.019860  0.123472
  N    -3.692555  1.653424  0.377738
  N    -3.841628 -1.653096  3.980697
  N    -4.379759  2.277681  4.116546
  S    -4.472963 -2.348322  2.604649
  S    -5.146427  1.693834  2.778915
  S    -1.775860 -1.143514 -0.323851
  S    -2.277750  2.366833 -0.112958
  S    -2.345689 -0.997338  3.806325
  S    -2.842043  2.881984  3.951493
