16  
    
  C     0.703454 -0.237768  2.746984
  C     0.339977  3.578030  2.919007
  C    -0.599546 -0.458360  2.153995
  C    -0.833355  3.171722  2.239200
  N     1.708938 -0.069766  1.896527
  N     1.385258  3.842980  2.169573
  N    -0.613239 -0.404579  0.819034
  N    -0.827701  3.518740  0.940019
  N    -1.006108 -0.417432  4.793627
  N    -1.408743  3.122576  4.728684
  S    -1.853651 -0.648630  3.411382
  S    -2.224946  2.869304  3.331166
  S     0.990094 -0.110337  0.386784
  S     0.841473  3.792049  0.590610
  S     0.603739 -0.049649  4.539775
  S     0.221410  3.409213  4.610029
