16  
    
  C     2.511454  1.215749  3.366678
  C     2.843499  5.152647  3.782900
  C     1.390932  0.652201  2.605379
  C     1.664897  4.497846  3.311428
  N     3.623344  1.439523  2.673321
  N     3.797797  5.280819  2.862272
  N     1.680464  0.289502  1.347448
  N     1.672817  4.259740  2.012814
  N     0.577000  0.850695  5.003598
  N     1.149876  4.919731  5.817044
  S    -0.017597  0.496497  3.545771
  S     0.353533  4.525853  4.407806
  S     3.236919  0.773638  1.090550
  S     3.198361  4.621943  1.439023
  S     2.130691  1.377741  5.103471
  S     2.637618  5.684859  5.427475
