16  
    
  C     2.093248  0.821881  3.079705
  C     2.150912  4.457607  3.055578
  C     0.781662  0.679022  2.439080
  C     0.975568  4.010703  2.339427
  N     3.116113  0.565963  2.292321
  N     3.194638  4.657401  2.229683
  N     0.873329  0.424332  1.132914
  N     1.222751  3.564895  1.098228
  N     0.243066  1.070693  4.972651
  N     0.301774  4.438554  4.746619
  S    -0.533576  0.559013  3.549069
  S    -0.412969  3.970974  3.310854
  S     2.422371  0.219665  0.830831
  S     2.753168  4.029270  0.742732
  S     1.968416  1.169169  4.769095
  S     1.876733  4.818389  4.777180
