16  
    
  C    -0.987318 -0.689504  2.244829
  C    -0.775935  2.944015  2.499882
  C    -2.163025 -1.413179  1.703455
  C    -1.965952  2.587550  1.846358
  N     0.103440 -0.698892  1.451570
  N     0.272527  2.960938  1.718642
  N    -1.993541 -1.685566  0.382034
  N    -1.864629  2.443267  0.544690
  N    -2.877718 -0.666167  4.055096
  N    -2.471291  2.804870  4.355274
  S    -3.533728 -1.598457  2.777305
  S    -3.300193  2.416417  3.013997
  S    -0.397226 -1.333263  0.007001
  S    -0.262619  2.738419  0.194355
  S    -1.274956 -0.260045  3.848797
  S    -0.919197  3.275445  4.190736
