16  
    
  C     3.248627  1.544052  3.570864
  C     3.067460  5.070911  3.379325
  C     1.993373  1.116575  3.053054
  C     1.976919  4.422301  2.693112
  N     4.294379  1.587124  2.743098
  N     4.105121  5.474424  2.661959
  N     2.132161  0.854367  1.761741
  N     2.209083  4.328353  1.404278
  N     1.584645  1.473294  5.562121
  N     1.164635  5.085597  5.109530
  S     0.711943  0.958924  4.235480
  S     0.613425  4.136928  3.850554
  S     3.695035  1.107816  1.238137
  S     3.714329  5.002974  1.052504
  S     3.141914  2.016061  5.248684
  S     2.778998  5.362102  5.106588
