16  
    
  C     2.569320  1.131990  3.364304
  C     2.909054  5.208154  3.725651
  C     1.413055  0.648187  2.604191
  C     1.593126  5.269676  3.120170
  N     3.681326  1.415917  2.679049
  N     3.919711  5.032305  2.890002
  N     1.625485  0.660758  1.288993
  N     1.597195  4.748834  1.891817
  N     0.673891  0.796047  5.152134
  N     1.370563  5.460267  5.659367
  S     0.026916  0.172364  3.719831
  S     0.354455  5.407374  4.370148
  S     3.207692  1.087187  1.029544
  S     3.186053  4.633366  1.413918
  S     2.292685  1.193596  5.028591
  S     3.015837  5.504545  5.395493
