16  
    
  C     0.658924  0.190782  3.071889
  C     0.690914  3.855290  2.937951
  C    -0.625428  0.118661  2.444644
  C    -0.541479  3.577372  2.262198
  N     1.689854  0.212679  2.252077
  N     1.689027  3.974544  2.091577
  N    -0.592348 -0.019636  1.120635
  N    -0.415606  3.233165  0.957595
  N    -1.125504  0.207610  5.012321
  N    -1.060933  3.681931  4.790968
  S    -1.962450  0.148286  3.573464
  S    -1.766137  3.187770  3.447953
  S     1.038162  0.059620  0.713501
  S     1.174534  3.521925  0.620014
  S     0.526836  0.514791  4.847072
  S     0.524050  4.253162  4.632855
