16  
    
  C     1.474455  0.976218  3.258538
  C     1.658217  4.435114  3.452464
  C     0.282595  0.442216  2.662129
  C     0.318952  4.275442  2.888052
  N     2.425970  1.193708  2.371371
  N     2.606704  4.341029  2.503502
  N     0.398264  0.195215  1.365244
  N     0.307585  3.940958  1.602761
  N    -0.284312  0.870749  5.184269
  N    -0.034060  4.663562  5.373241
  S    -1.091193  0.506368  3.693765
  S    -1.012225  4.211913  4.081224
  S     1.899884  0.728580  0.892236
  S     1.873995  4.057368  1.078736
  S     1.355818  1.315584  4.961206
  S     1.580179  4.873679  5.114498
