16  
    
  C    -2.268892 -1.149886  2.122698
  C    -2.738763  2.657907  2.285053
  C    -3.382331 -1.807940  1.542856
  C    -3.839185  1.897947  1.727140
  N    -1.372420 -0.687483  1.270823
  N    -1.728669  2.930796  1.452517
  N    -3.301148 -1.905133  0.241220
  N    -3.727731  1.745488  0.425331
  N    -4.083554 -1.560421  3.967787
  N    -4.403840  2.161382  4.242243
  S    -4.658260 -2.315651  2.549061
  S    -5.065382  1.458217  2.871764
  S    -1.874226 -1.203277 -0.227219
  S    -2.275706  2.417686 -0.025727
  S    -2.521048 -0.961683  3.896741
  S    -2.889602  2.834921  4.035593
