16  
    
  C     0.441196  0.030040  2.785832
  C     0.193951  3.777917  2.841074
  C    -0.753813 -0.513840  2.138565
  C    -0.897339  3.078012  2.167973
  N     1.406206  0.291837  1.938481
  N     1.265436  3.913585  2.078476
  N    -0.672929 -0.768683  0.846939
  N    -0.724436  2.973317  0.844624
  N    -1.217293 -0.488729  4.648958
  N    -1.525936  3.030025  4.599088
  S    -2.070576 -0.713344  3.216755
  S    -2.260718  2.758136  3.103484
  S     0.842089 -0.234449  0.496793
  S     0.792792  3.610521  0.490397
  S     0.381597  0.059009  4.515733
  S     0.012779  3.542866  4.599213
