16  
    
  C     1.120185  0.257457  3.066207
  C     0.986875  4.262043  2.605373
  C    -0.103841  0.075145  2.297123
  C    -0.017792  3.413734  1.998202
  N     2.253162  0.308391  2.360248
  N     2.068286  4.315559  1.797900
  N     0.149471 -0.114119  1.000591
  N     0.165527  3.132087  0.691961
  N    -0.875585  0.124980  4.844917
  N    -0.870584  4.180398  4.309299
  S    -1.609256  0.176181  3.339191
  S    -1.403966  3.236091  2.999114
  S     1.790574  0.000302  0.775318
  S     1.709643  3.540862  0.371084
  S     0.806057  0.408425  4.820289
  S     0.698615  4.653510  4.331263
