16  
    
  C     1.177671  0.181945  2.962274
  C     0.698011  3.829410  3.170521
  C    -0.077956 -0.404186  2.440851
  C    -0.496121  3.342041  2.510417
  N     2.116497  0.325245  2.042679
  N     1.756974  4.073173  2.435989
  N     0.036493 -0.830050  1.167977
  N    -0.357038  3.347289  1.214334
  N    -0.490397  0.200742  4.915339
  N    -1.013132  3.232161  5.022125
  S    -1.302658 -0.495116  3.641879
  S    -1.871451  2.981812  3.530738
  S     1.556293 -0.345358  0.599930
  S     1.244546  3.765997  0.870282
  S     1.070821  0.600333  4.699673
  S     0.546150  3.620220  4.854252
