16  
    
  C     2.919147  1.476814  3.471399
  C     2.818596  5.192158  3.178807
  C     1.754465  0.904187  2.813877
  C     1.739730  4.416285  2.635103
  N     3.860293  1.800133  2.607933
  N     3.873203  5.307902  2.366848
  N     1.871548  0.733087  1.485142
  N     1.833043  4.203200  1.312783
  N     1.169399  1.431146  5.287979
  N     1.270688  4.956587  5.094115
  S     0.417922  0.727029  3.938183
  S     0.487710  4.164844  3.846228
  S     3.353567  1.400882  1.052220
  S     3.283987  4.856763  0.877471
  S     2.810604  1.696677  5.187889
  S     2.838902  5.475111  4.862595
