16  
    
  C    -1.631223 -1.203942  2.364727
  C    -1.819522  2.372179  2.393537
  C    -2.979379 -1.313353  1.831996
  C    -3.018481  1.863588  1.767922
  N    -0.641668 -1.119718  1.447766
  N    -0.751596  2.590911  1.626432
  N    -2.982335 -1.475613  0.500712
  N    -2.853364  1.739573  0.470352
  N    -3.322070 -1.031452  4.329656
  N    -3.664349  2.149608  4.224295
  S    -4.234921 -1.337999  2.980352
  S    -4.365216  1.688590  2.811681
  S    -1.436473 -1.290609 -0.020310
  S    -1.316969  2.233459  0.063298
  S    -1.676247 -0.742687  4.007415
  S    -2.068400  2.595528  4.134268
