16  
    
  C    -0.387012 -0.775281  2.743485
  C    -0.351377  3.329506  2.696911
  C    -1.721843 -1.153149  2.218075
  C    -1.464888  2.707965  2.063852
  N     0.510498 -0.535179  1.791716
  N     0.716961  3.531855  1.950304
  N    -1.732253 -1.446361  0.925686
  N    -1.181441  2.236288  0.866007
  N    -2.126825 -0.728014  4.700948
  N    -2.267536  3.050437  4.423257
  S    -3.017249 -1.104085  3.295230
  S    -2.799706  2.306850  3.089273
  S    -0.233391 -0.973849  0.326866
  S     0.287590  2.877937  0.456748
  S    -0.543143 -0.367091  4.400490
  S    -0.748194  3.700100  4.423158
