16  
    
  C    -0.053498 -0.460318  2.483702
  C    -0.369702  3.383622  2.588788
  C    -1.294263 -0.882397  1.749475
  C    -1.619995  3.024426  2.005758
  N     0.974748 -0.213144  1.687605
  N     0.601926  3.461498  1.701546
  N    -1.161501 -1.077017  0.420870
  N    -1.655856  3.050129  0.696341
  N    -1.888224 -0.599518  4.311780
  N    -1.960712  3.204837  4.521729
  S    -2.523016 -1.265822  2.896407
  S    -2.944143  2.940274  3.226023
  S     0.463771 -0.563979  0.135549
  S    -0.050646  3.190658  0.213496
  S    -0.362177  0.041361  4.097195
  S    -0.406780  3.546447  4.288577
