16  
    
  C    -2.734283 -1.589039  2.130810
  C    -2.549260  2.443676  2.222353
  C    -3.991990 -1.835258  1.540483
  C    -3.745841  1.909848  1.577796
  N    -1.727679 -1.218492  1.291836
  N    -1.470304  2.594588  1.439284
  N    -3.867501 -1.988034  0.200245
  N    -3.607778  1.856416  0.245535
  N    -4.444413 -1.465125  4.071307
  N    -4.241653  1.855787  4.105057
  S    -5.257035 -2.079773  2.746501
  S    -5.095047  1.697768  2.655100
  S    -2.245973 -1.563566 -0.214533
  S    -2.030557  2.258760 -0.112357
  S    -2.762945 -1.351395  3.859820
  S    -2.629608  2.385944  3.932764
