16  
    
  C    -4.182275 -1.990523  1.794597
  C    -4.174234  1.520709  1.906085
  C    -5.422772 -2.469428  1.162383
  C    -5.376676  0.960170  1.354723
  N    -3.174212 -2.047931  0.935733
  N    -3.226137  1.705092  0.997486
  N    -5.357800 -2.766273 -0.144490
  N    -5.259494  0.517447  0.090813
  N    -6.022611 -2.034021  3.634674
  N    -5.960142  1.718811  3.724481
  S    -6.837076 -2.434971  2.237294
  S    -6.713857  0.928201  2.457115
  S    -3.776101 -2.538722 -0.561309
  S    -3.792517  1.050223 -0.386701
  S    -4.396032 -1.486583  3.494144
  S    -4.315934  2.117726  3.529246
