16  
    
  C    -1.575739 -1.132865  2.276216
  C    -1.854535  2.479998  2.197063
  C    -2.862637 -1.373849  1.712120
  C    -3.047876  2.013649  1.542295
  N    -0.567355 -0.997646  1.398123
  N    -0.841488  2.646307  1.391987
  N    -2.823409 -1.580227  0.397996
  N    -2.920670  1.694908  0.266356
  N    -3.249622 -0.902411  4.231272
  N    -3.537649  2.172607  4.100254
  S    -4.158240 -1.245216  2.900295
  S    -4.336000  1.820453  2.691730
  S    -1.243718 -1.375951 -0.110585
  S    -1.362585  2.172680 -0.130205
  S    -1.567588 -0.908283  4.046812
  S    -1.911019  2.580895  3.921893
