16  
    
  C    -1.187031 -0.548872  2.292885
  C    -1.175290  2.963489  2.313093
  C    -2.320373 -1.115087  1.614183
  C    -2.460274  2.939652  1.696686
  N    -0.136326 -0.362603  1.482879
  N    -0.196261  2.964552  1.428415
  N    -2.308097 -1.048465  0.281165
  N    -2.458297  2.702517  0.387849
  N    -2.949122 -0.796828  4.164911
  N    -2.872788  3.176519  4.213307
  S    -3.618349 -1.397029  2.746102
  S    -3.792196  2.778203  2.895525
  S    -0.719123 -0.541417 -0.066226
  S    -0.878912  2.840124 -0.050473
  S    -1.375045 -0.187220  3.981695
  S    -1.254168  3.271721  3.979241
