16  
    
  C     3.393043  1.481316  3.610650
  C     3.066271  5.223414  3.431223
  C     2.128213  1.007441  3.097048
  C     1.939190  4.631900  2.731138
  N     4.298957  1.657081  2.681009
  N     4.101496  5.523068  2.623625
  N     2.118356  0.822581  1.803025
  N     2.159527  4.264593  1.500985
  N     1.801705  1.326418  5.636075
  N     1.215338  4.837801  5.158376
  S     0.877448  0.988946  4.273062
  S     0.615678  4.222586  3.709755
  S     3.591784  1.275813  1.207871
  S     3.574460  4.926005  1.109465
  S     3.368987  1.890679  5.281735
  S     2.742416  5.467762  5.065899
