16  
    
  C    -0.111365 -0.448226  2.606280
  C     0.060019  3.540337  2.341969
  C    -1.409935 -0.624419  2.084264
  C    -1.225007  3.113653  1.697742
  N     0.882223 -0.346798  1.762706
  N     1.118360  3.625364  1.505558
  N    -1.421968 -0.635732  0.788439
  N    -1.162718  3.301213  0.338902
  N    -1.832361 -0.392614  4.532733
  N    -1.624909  3.492612  4.296003
  S    -2.741052 -0.695574  3.165617
  S    -2.460572  3.048892  2.900507
  S     0.140371 -0.373398  0.230342
  S     0.435904  3.446951 -0.027623
  S    -0.225718 -0.145166  4.276943
  S     0.006857  3.775034  4.064154
