44
Properties=species:S:1:pos:R:3 pbc="F F F"
C       -0.00001600       0.00000000       0.00000000
C        1.43223500       0.00000000       0.00000000
C       -0.71616900       1.24037100       0.00000000
C       -0.71616900      -1.24037100       0.00000000
C        2.11741300      -1.24372600       0.00000000
C        2.11741300       1.24372600       0.00000000
C        0.01848000       2.45555400       0.00000000
C       -2.13583100       1.21180800       0.00000000
C       -2.13583100      -1.21180800       0.00000000
C        0.01848000      -2.45555400       0.00000000
C        1.41275800      -2.44688100       0.00000000
C        1.41275800       2.44688100       0.00000000
C       -2.82549800       0.00000000       0.00000000
H        3.20486000      -1.24647000       0.00000000
H        3.20486000       1.24647000       0.00000000
H       -0.52273900       3.39876700       0.00000000
H       -2.68215500       2.15207600       0.00000000
H       -2.68215500      -2.15207600       0.00000000
H       -0.52273900      -3.39876700       0.00000000
H        1.95638300      -3.38844400       0.00000000
H        1.95638300       3.38844400       0.00000000
H       -3.91272400       0.00000000       0.00000000
C        0.00000223      -0.00001584       3.50000000
C       -0.19932859       1.41829659       3.50000000
C       -1.12862833      -0.88182557       3.50000000
C        1.32797126      -0.53657301       3.50000000
C        0.93693521       2.26989969       3.50000000
C       -1.52630908       1.92371328       3.50000000
C       -2.43422864      -0.32344691       3.50000000
C       -0.90276454      -2.28369632       3.50000000
C        1.49726499      -1.94639416       3.50000000
C        2.42908480       0.36004722       3.50000000
C        2.22645021       1.73954915       3.50000000
C       -2.61968603       1.05846912       3.50000000
C        0.39323332      -2.79800045       3.50000000
H        0.78830914       3.34714562       3.50000000
H       -1.68036974       3.00019543       3.50000000
H       -3.29293923      -0.99066868       3.50000000
H       -1.75784832      -2.95556354       3.50000000
H        2.50441597      -2.35654136       3.50000000
H        3.43844164      -0.04463480       3.50000000
H        3.08319201       2.40892387       3.50000000
H       -3.62774378       1.46576336       3.50000000
H        0.54454593      -3.87464564       3.50000000
