44
Properties=species:S:1:pos:R:3 pbc="F F F"
C       -0.00001600       0.00000000       0.00000000
C        1.43223500       0.00000000       0.00000000
C       -0.71616900       1.24037100       0.00000000
C       -0.71616900      -1.24037100       0.00000000
C        2.11741300      -1.24372600       0.00000000
C        2.11741300       1.24372600       0.00000000
C        0.01848000       2.45555400       0.00000000
C       -2.13583100       1.21180800       0.00000000
C       -2.13583100      -1.21180800       0.00000000
C        0.01848000      -2.45555400       0.00000000
C        1.41275800      -2.44688100       0.00000000
C        1.41275800       2.44688100       0.00000000
C       -2.82549800       0.00000000       0.00000000
H        3.20486000      -1.24647000       0.00000000
H        3.20486000       1.24647000       0.00000000
H       -0.52273900       3.39876700       0.00000000
H       -2.68215500       2.15207600       0.00000000
H       -2.68215500      -2.15207600       0.00000000
H       -0.52273900      -3.39876700       0.00000000
H        1.95638300      -3.38844400       0.00000000
H        1.95638300       3.38844400       0.00000000
H       -3.91272400       0.00000000       0.00000000
C       -0.00000167      -0.00001591       3.50000000
C        0.14970932       1.42438907       3.50000000
C       -1.30843616      -0.58259168       3.50000000
C        1.15871607      -0.84189983       3.50000000
C        1.45824267       1.97580882       3.50000000
C       -1.01558281       2.23581836       3.50000000
C       -2.44017053       0.27505405       3.50000000
C       -1.42842472      -1.99746227       3.50000000
C        0.98191446      -2.25079912       3.50000000
C        2.44403390      -0.23829652       3.50000000
C        2.58115015       1.14925005       3.50000000
C       -2.28580331       1.66078747       3.50000000
C       -0.29534496      -2.81001963       3.50000000
H        1.57464080       3.05701185       3.50000000
H       -0.90464262       3.31759504       3.50000000
H       -3.43478930      -0.16460749       3.50000000
H       -2.42064824      -2.44250868       3.50000000
H        1.85992516      -2.89241507       3.50000000
H        3.32550709      -0.87514327       3.50000000
H        3.57437946       1.59147689       3.50000000
H       -3.16538404       2.29985457       3.50000000
H       -0.40899103      -3.89128969       3.50000000
