44
Properties=species:S:1:pos:R:3 pbc="F F F"
C       -0.00001600       0.00000000       0.00000000
C        1.43223500       0.00000000       0.00000000
C       -0.71616900       1.24037100       0.00000000
C       -0.71616900      -1.24037100       0.00000000
C        2.11741300      -1.24372600       0.00000000
C        2.11741300       1.24372600       0.00000000
C        0.01848000       2.45555400       0.00000000
C       -2.13583100       1.21180800       0.00000000
C       -2.13583100      -1.21180800       0.00000000
C        0.01848000      -2.45555400       0.00000000
C        1.41275800      -2.44688100       0.00000000
C        1.41275800       2.44688100       0.00000000
C       -2.82549800       0.00000000       0.00000000
H        3.20486000      -1.24647000       0.00000000
H        3.20486000       1.24647000       0.00000000
H       -0.52273900       3.39876700       0.00000000
H       -2.68215500       2.15207600       0.00000000
H       -2.68215500      -2.15207600       0.00000000
H       -0.52273900      -3.39876700       0.00000000
H        1.95638300      -3.38844400       0.00000000
H        1.95638300       3.38844400       0.00000000
H       -3.91272400       0.00000000       0.00000000
C       -0.00001278      -0.00000963       3.50000000
C        1.14383373       0.86194054       3.50000000
C       -1.31843190       0.55960306       3.50000000
C        0.17451591      -1.42160559       3.50000000
C        2.43953420       0.28100721       3.50000000
C        0.94254822       2.26757470       3.50000000
C       -1.46303050       1.97221416       3.50000000
C       -2.43503474      -0.31758228       3.50000000
C       -0.97646622      -2.25316808       3.50000000
C        1.49254807      -1.94997108       3.50000000
C        2.60084845      -1.10394707       3.50000000
C       -0.34429104       2.80438504       3.50000000
C       -2.25654304      -1.70042714       3.50000000
H        3.30965937       0.93325769       3.50000000
H        1.80937063       2.92420810       3.50000000
H       -2.46290697       2.39978383       3.50000000
H       -3.43721589       0.10456314       3.50000000
H       -0.84691256      -3.33288549       3.50000000
H        1.62795111      -3.02896820       3.50000000
H        3.60165344      -1.52875102       3.50000000
H       -0.47677957       3.88351238       3.50000000
H       -3.12484033      -2.35473608       3.50000000
