44
Properties=species:S:1:pos:R:3 pbc="F F F"
C       -0.00001600       0.00000000       0.00000000
C        1.43223500       0.00000000       0.00000000
C       -0.71616900       1.24037100       0.00000000
C       -0.71616900      -1.24037100       0.00000000
C        2.11741300      -1.24372600       0.00000000
C        2.11741300       1.24372600       0.00000000
C        0.01848000       2.45555400       0.00000000
C       -2.13583100       1.21180800       0.00000000
C       -2.13583100      -1.21180800       0.00000000
C        0.01848000      -2.45555400       0.00000000
C        1.41275800      -2.44688100       0.00000000
C        1.41275800       2.44688100       0.00000000
C       -2.82549800       0.00000000       0.00000000
H        3.20486000      -1.24647000       0.00000000
H        3.20486000       1.24647000       0.00000000
H       -0.52273900       3.39876700       0.00000000
H       -2.68215500       2.15207600       0.00000000
H       -2.68215500      -2.15207600       0.00000000
H       -0.52273900      -3.39876700       0.00000000
H        1.95638300      -3.38844400       0.00000000
H        1.95638300       3.38844400       0.00000000
H       -3.91272400       0.00000000       0.00000000
C        0.00000305      -0.00001571       3.50000000
C       -0.27328332       1.40592081       3.50000000
C       -1.08093040      -0.93968490       3.50000000
C        1.35423338      -0.46633701       3.50000000
C        0.81685380       2.31582427       3.50000000
C       -1.62489670       1.84119605       3.50000000
C       -2.41396471      -0.45040132       3.50000000
C       -0.78200791      -2.32781364       3.50000000
C        1.59707944      -1.86536590       3.50000000
C        2.40691241       0.48668226       3.50000000
C        2.13235797       1.85368856       3.50000000
C       -2.67149184       0.91991475       3.50000000
C        0.53913043      -2.77358564       3.50000000
H        0.61205272       3.38381538       3.50000000
H       -1.83508495       2.90814001       3.50000000
H       -3.23657877      -1.16165013       3.50000000
H       -1.60075700      -3.04351172       3.50000000
H        2.62431560      -2.22224080       3.50000000
H        3.43606538       0.13538050       3.50000000
H        2.95289327       2.56698433       3.50000000
H       -3.69948421       1.27389314       3.50000000
H        0.74658294      -3.84083624       3.50000000
