44
Properties=species:S:1:pos:R:3 pbc="F F F"
C       -0.00001600       0.00000000       0.00000000
C        1.43223500       0.00000000       0.00000000
C       -0.71616900       1.24037100       0.00000000
C       -0.71616900      -1.24037100       0.00000000
C        2.11741300      -1.24372600       0.00000000
C        2.11741300       1.24372600       0.00000000
C        0.01848000       2.45555400       0.00000000
C       -2.13583100       1.21180800       0.00000000
C       -2.13583100      -1.21180800       0.00000000
C        0.01848000      -2.45555400       0.00000000
C        1.41275800      -2.44688100       0.00000000
C        1.41275800       2.44688100       0.00000000
C       -2.82549800       0.00000000       0.00000000
H        3.20486000      -1.24647000       0.00000000
H        3.20486000       1.24647000       0.00000000
H       -0.52273900       3.39876700       0.00000000
H       -2.68215500       2.15207600       0.00000000
H       -2.68215500      -2.15207600       0.00000000
H       -0.52273900      -3.39876700       0.00000000
H        1.95638300      -3.38844400       0.00000000
H        1.95638300       3.38844400       0.00000000
H       -3.91272400       0.00000000       0.00000000
C       -0.00000084      -0.00001598       3.50000000
C        0.07495739       1.43027217       3.50000000
C       -1.27615250      -0.65027151       3.50000000
C        1.20118973      -0.78010352       3.50000000
C        1.35283835       2.04941957       3.50000000
C       -1.13120468       2.17960275       3.50000000
C       -2.45122158       0.14696844       3.50000000
C       -1.32192802      -2.06948279       3.50000000
C        1.09836650      -2.19632505       3.50000000
C        2.45315592      -0.11005909       3.50000000
C        2.51746568       1.28276201       3.50000000
C       -2.36958959       1.53888172       3.50000000
C       -0.14787514      -2.82162575       3.50000000
H        1.41249117       3.13523265       3.50000000
H       -1.07703234       3.26570305       3.50000000
H       -3.42146715      -0.34414488       3.50000000
H       -2.28949980      -2.56584824       3.50000000
H        2.00875351      -2.79111016       3.50000000
H        3.36675106      -0.69990033       3.50000000
H        3.48618943       1.77636439       3.50000000
H       -3.28141108       2.13103930       3.50000000
H       -0.20477615      -3.90736175       3.50000000
