44
Properties=species:S:1:pos:R:3 pbc="F F F"
C       -0.00001600       0.00000000       0.00000000
C        1.43223500       0.00000000       0.00000000
C       -0.71616900       1.24037100       0.00000000
C       -0.71616900      -1.24037100       0.00000000
C        2.11741300      -1.24372600       0.00000000
C        2.11741300       1.24372600       0.00000000
C        0.01848000       2.45555400       0.00000000
C       -2.13583100       1.21180800       0.00000000
C       -2.13583100      -1.21180800       0.00000000
C        0.01848000      -2.45555400       0.00000000
C        1.41275800      -2.44688100       0.00000000
C        1.41275800       2.44688100       0.00000000
C       -2.82549800       0.00000000       0.00000000
H        3.20486000      -1.24647000       0.00000000
H        3.20486000       1.24647000       0.00000000
H       -0.52273900       3.39876700       0.00000000
H       -2.68215500       2.15207600       0.00000000
H       -2.68215500      -2.15207600       0.00000000
H       -0.52273900      -3.39876700       0.00000000
H        1.95638300      -3.38844400       0.00000000
H        1.95638300       3.38844400       0.00000000
H       -3.91272400       0.00000000       0.00000000
C       -0.00001131      -0.00001131       3.50000000
C        1.01274308       1.01274308       3.50000000
C       -1.38348270       0.37066679       3.50000000
C        0.37066679      -1.38348270       3.50000000
C        2.37668418       0.61779000       3.50000000
C        0.61779000       2.37668418       3.50000000
C       -1.72327155       1.74940622       3.50000000
C       -2.36713824      -0.65338293       3.50000000
C       -0.65338293      -2.36713824       3.50000000
C        1.74940622      -1.72327155       3.50000000
C        2.72917691      -0.73123539       3.50000000
C       -0.73123539       2.72917691       3.50000000
C       -1.99792880      -1.99792880       3.50000000
H        3.14756563       1.38479085       3.50000000
H        1.38479085       3.14756563       3.50000000
H       -2.77292349       2.03365890       3.50000000
H       -3.41831752      -0.37482246       3.50000000
H       -0.37482246      -3.41831752       3.50000000
H        2.03365890      -2.77292349       3.50000000
H        3.77936342      -1.01262004       3.50000000
H       -1.01262004       3.77936342       3.50000000
H       -2.76671367      -2.76671367       3.50000000
