44
Properties=species:S:1:pos:R:3 pbc="F F F"
C       -0.00001600       0.00000000       0.00000000
C        1.43223500       0.00000000       0.00000000
C       -0.71616900       1.24037100       0.00000000
C       -0.71616900      -1.24037100       0.00000000
C        2.11741300      -1.24372600       0.00000000
C        2.11741300       1.24372600       0.00000000
C        0.01848000       2.45555400       0.00000000
C       -2.13583100       1.21180800       0.00000000
C       -2.13583100      -1.21180800       0.00000000
C        0.01848000      -2.45555400       0.00000000
C        1.41275800      -2.44688100       0.00000000
C        1.41275800       2.44688100       0.00000000
C       -2.82549800       0.00000000       0.00000000
H        3.20486000      -1.24647000       0.00000000
H        3.20486000       1.24647000       0.00000000
H       -0.52273900       3.39876700       0.00000000
H       -2.68215500       2.15207600       0.00000000
H       -2.68215500      -2.15207600       0.00000000
H       -0.52273900      -3.39876700       0.00000000
H        1.95638300      -3.38844400       0.00000000
H        1.95638300       3.38844400       0.00000000
H       -3.91272400       0.00000000       0.00000000
C        0.00000726      -0.00001426       3.50000000
C       -0.65022108       1.27613073       3.50000000
C       -0.78004473      -1.20122790       3.50000000
C        1.43031258      -0.07499460       3.50000000
C        0.14688259       2.45126859       3.50000000
C       -2.06945337       1.32198901       3.50000000
C       -2.19630438      -1.09833239       3.50000000
C       -0.11008185      -2.45318868       3.50000000
C        2.04937582      -1.35289004       3.50000000
C        2.17952489       1.13126399       3.50000000
C        1.53880822       2.36963732       3.50000000
C       -2.82156565       0.14791587       3.50000000
C        1.28274925      -2.51753715       3.50000000
H       -0.34436309       3.42143671       3.50000000
H       -2.56558890       2.28966563       3.50000000
H       -2.79100503      -2.00877179       3.50000000
H       -0.69984087      -3.36683966       3.50000000
H        3.13518665      -1.41279555       3.50000000
H        3.26564211       1.07724407       3.50000000
H        2.13094641       3.28147140       3.50000000
H       -3.90730501       0.20482863       3.50000000
H        1.77633952      -3.48626261       3.50000000
