44
Properties=species:S:1:pos:R:3 pbc="F F F"
C       -0.00001600       0.00000000       0.00000000
C        1.43223500       0.00000000       0.00000000
C       -0.71616900       1.24037100       0.00000000
C       -0.71616900      -1.24037100       0.00000000
C        2.11741300      -1.24372600       0.00000000
C        2.11741300       1.24372600       0.00000000
C        0.01848000       2.45555400       0.00000000
C       -2.13583100       1.21180800       0.00000000
C       -2.13583100      -1.21180800       0.00000000
C        0.01848000      -2.45555400       0.00000000
C        1.41275800      -2.44688100       0.00000000
C        1.41275800       2.44688100       0.00000000
C       -2.82549800       0.00000000       0.00000000
H        3.20486000      -1.24647000       0.00000000
H        3.20486000       1.24647000       0.00000000
H       -0.52273900       3.39876700       0.00000000
H       -2.68215500       2.15207600       0.00000000
H       -2.68215500      -2.15207600       0.00000000
H       -0.52273900      -3.39876700       0.00000000
H        1.95638300      -3.38844400       0.00000000
H        1.95638300       3.38844400       0.00000000
H       -3.91272400       0.00000000       0.00000000
C       -0.00000800      -0.00001386       3.50000000
C        0.71611750       1.24035189       3.50000000
C       -1.43227730      -0.00003505       3.50000000
C        0.71610830      -1.24040605       3.50000000
C        2.13580481       1.21187045       3.50000000
C       -0.01839181       2.45559645       3.50000000
C       -2.11733214       1.24378115       3.50000000
C       -2.11737201      -1.24377990       3.50000000
C       -0.01845899      -2.45558790       3.50000000
C        2.13581214      -1.21177285       3.50000000
C        2.82544011       0.00004382       3.50000000
C       -1.41268211       2.44692482       3.50000000
C       -1.41274900      -2.44695305       3.50000000
H        2.68190469       2.15225518       3.50000000
H        0.52295531       3.39872518       3.50000000
H       -3.20478806       1.24667825       3.50000000
H       -3.20482999      -1.24677637       3.50000000
H        0.52267499      -3.39885237       3.50000000
H        2.68204906      -2.15208875       3.50000000
H        3.91267008       0.00005538       3.50000000
H       -1.95628708       3.38849938       3.50000000
H       -1.95636200      -3.38851838       3.50000000
