44
Properties=species:S:1:pos:R:3 pbc="F F F"
C       -0.00001600       0.00000000       0.00000000
C        1.43223500       0.00000000       0.00000000
C       -0.71616900       1.24037100       0.00000000
C       -0.71616900      -1.24037100       0.00000000
C        2.11741300      -1.24372600       0.00000000
C        2.11741300       1.24372600       0.00000000
C        0.01848000       2.45555400       0.00000000
C       -2.13583100       1.21180800       0.00000000
C       -2.13583100      -1.21180800       0.00000000
C        0.01848000      -2.45555400       0.00000000
C        1.41275800      -2.44688100       0.00000000
C        1.41275800       2.44688100       0.00000000
C       -2.82549800       0.00000000       0.00000000
H        3.20486000      -1.24647000       0.00000000
H        3.20486000       1.24647000       0.00000000
H       -0.52273900       3.39876700       0.00000000
H       -2.68215500       2.15207600       0.00000000
H       -2.68215500      -2.15207600       0.00000000
H       -0.52273900      -3.39876700       0.00000000
H        1.95638300      -3.38844400       0.00000000
H        1.95638300       3.38844400       0.00000000
H       -3.91272400       0.00000000       0.00000000
C       -0.00001028      -0.00001226       3.50000000
C        0.92062291       1.09715566       3.50000000
C       -1.41052387       0.24867783       3.50000000
C        0.48983475      -1.34591239       3.50000000
C        2.31379623       0.82258080       3.50000000
C        0.40829745       2.42148413       3.50000000
C       -1.86918478       1.59255619       3.50000000
C       -2.30118449      -0.85720630       3.50000000
C       -0.44458692      -2.41507664       3.50000000
C        1.89294221      -1.56424318       3.50000000
C        2.78252293      -0.49058937       3.50000000
C       -0.96631626       2.65506020       3.50000000
C       -1.81619511      -2.16445704       3.50000000
H        3.01489572       1.65384972       3.50000000
H        1.10519288       3.25628067       3.50000000
H       -2.93961673       1.78424401       3.50000000
H       -3.37264186      -0.67132215       3.50000000
H       -0.07547014      -3.43797772       3.50000000
H        2.26759642      -2.58512662       3.50000000
H        3.85323745      -0.67937349       3.50000000
H       -1.33815994       3.67672615       3.50000000
H       -2.51505051      -2.99732048       3.50000000
