44
Properties=species:S:1:pos:R:3 pbc="F F F"
C       -0.00001600       0.00000000       0.00000000
C        1.43223500       0.00000000       0.00000000
C       -0.71616900       1.24037100       0.00000000
C       -0.71616900      -1.24037100       0.00000000
C        2.11741300      -1.24372600       0.00000000
C        2.11741300       1.24372600       0.00000000
C        0.01848000       2.45555400       0.00000000
C       -2.13583100       1.21180800       0.00000000
C       -2.13583100      -1.21180800       0.00000000
C        0.01848000      -2.45555400       0.00000000
C        1.41275800      -2.44688100       0.00000000
C        1.41275800       2.44688100       0.00000000
C       -2.82549800       0.00000000       0.00000000
H        3.20486000      -1.24647000       0.00000000
H        3.20486000       1.24647000       0.00000000
H       -0.52273900       3.39876700       0.00000000
H       -2.68215500       2.15207600       0.00000000
H       -2.68215500      -2.15207600       0.00000000
H       -0.52273900      -3.39876700       0.00000000
H        1.95638300      -3.38844400       0.00000000
H        1.95638300       3.38844400       0.00000000
H       -3.91272400       0.00000000       0.00000000
C       -0.00001261      -0.00000985       3.50000000
C        1.12861658       0.88177191       3.50000000
C       -1.32799751       0.53650802       3.50000000
C        0.19929977      -1.41834335       3.50000000
C        2.43425840       0.32354015       3.50000000
C        0.90283003       2.28367907       3.50000000
C       -1.49722756       1.94638038       3.50000000
C       -2.42912130      -0.36003113       3.50000000
C       -0.93699429      -2.26986660       3.50000000
C        1.52635244      -1.92362553       3.50000000
C        2.61971886      -1.05838787       3.50000000
C       -0.39318187       2.79794922       3.50000000
C       -2.22652281      -1.73955027       3.50000000
H        3.29286770       0.99087707       3.50000000
H        1.75806058       2.95534060       3.50000000
H       -2.50441386       2.35643468       3.50000000
H       -3.43851727       0.04455953       3.50000000
H       -0.78861670      -3.34715853       3.50000000
H        1.68056595      -3.00009521       3.50000000
H        3.62778527      -1.46566067       3.50000000
H       -0.54448359       3.87459995       3.50000000
H       -3.08326859      -2.40891343       3.50000000
