44
Properties=species:S:1:pos:R:3 pbc="F F F"
C       -0.00001600       0.00000000       0.00000000
C        1.43223500       0.00000000       0.00000000
C       -0.71616900       1.24037100       0.00000000
C       -0.71616900      -1.24037100       0.00000000
C        2.11741300      -1.24372600       0.00000000
C        2.11741300       1.24372600       0.00000000
C        0.01848000       2.45555400       0.00000000
C       -2.13583100       1.21180800       0.00000000
C       -2.13583100      -1.21180800       0.00000000
C        0.01848000      -2.45555400       0.00000000
C        1.41275800      -2.44688100       0.00000000
C        1.41275800       2.44688100       0.00000000
C       -2.82549800       0.00000000       0.00000000
H        3.20486000      -1.24647000       0.00000000
H        3.20486000       1.24647000       0.00000000
H       -0.52273900       3.39876700       0.00000000
H       -2.68215500       2.15207600       0.00000000
H       -2.68215500      -2.15207600       0.00000000
H       -0.52273900      -3.39876700       0.00000000
H        1.95638300      -3.38844400       0.00000000
H        1.95638300       3.38844400       0.00000000
H       -3.91272400       0.00000000       0.00000000
C       -0.00001151      -0.00001111       3.50000000
C        1.03026364       0.99491403       3.50000000
C       -1.37680296       0.39475544       3.50000000
C        0.34646523      -1.38974102       3.50000000
C        2.38710412       0.57621705       3.50000000
C        0.65917477       2.36554028       3.50000000
C       -1.69247774       1.77921501       3.50000000
C       -2.37818082      -0.61197116       3.50000000
C       -0.69459567      -2.35537461       3.50000000
C        1.71906454      -1.75354044       3.50000000
C        2.71599943      -0.77875472       3.50000000
C       -0.68349331       2.74152306       3.50000000
C       -2.03249317      -1.96275584       3.50000000
H        3.17125417       1.32964734       3.50000000
H        1.43951253       3.12291831       3.50000000
H       -2.73700891       2.08174335       3.50000000
H       -3.42433845      -0.31510750       3.50000000
H       -0.43442323      -3.41125534       3.50000000
H        1.98495498      -2.80799340       3.50000000
H        3.76111514      -1.07842480       3.50000000
H       -0.94650683       3.79646046       3.50000000
H       -2.81457810      -2.71800648       3.50000000
