44
Properties=species:S:1:pos:R:3 pbc="F F F"
C       -0.00001600       0.00000000       0.00000000
C        1.43223500       0.00000000       0.00000000
C       -0.71616900       1.24037100       0.00000000
C       -0.71616900      -1.24037100       0.00000000
C        2.11741300      -1.24372600       0.00000000
C        2.11741300       1.24372600       0.00000000
C        0.01848000       2.45555400       0.00000000
C       -2.13583100       1.21180800       0.00000000
C       -2.13583100      -1.21180800       0.00000000
C        0.01848000      -2.45555400       0.00000000
C        1.41275800      -2.44688100       0.00000000
C        1.41275800       2.44688100       0.00000000
C       -2.82549800       0.00000000       0.00000000
H        3.20486000      -1.24647000       0.00000000
H        3.20486000       1.24647000       0.00000000
H       -0.52273900       3.39876700       0.00000000
H       -2.68215500       2.15207600       0.00000000
H       -2.68215500      -2.15207600       0.00000000
H       -0.52273900      -3.39876700       0.00000000
H        1.95638300      -3.38844400       0.00000000
H        1.95638300       3.38844400       0.00000000
H       -3.91272400       0.00000000       0.00000000
C       -0.00001538      -0.00000441       3.50000000
C        1.37675265       0.39477747       3.50000000
C       -1.03031841       0.99491820       3.50000000
C       -0.34653324      -1.38972406       3.50000000
C        2.37820536      -0.61190804       3.50000000
C        1.69257067       1.77918428       3.50000000
C       -0.65907830       2.36552378       3.50000000
C       -2.38711208       0.57614980       3.50000000
C       -1.71907298      -1.75357942       3.50000000
C        0.69460653      -2.35533622       3.50000000
C        2.03248196      -1.96268410       3.50000000
C        0.68357834       2.74150186       3.50000000
C       -2.71604300      -0.77881280       3.50000000
H        3.42428285      -0.31480473       3.50000000
H        2.73713546       2.08156300       3.50000000
H       -1.43931613       3.12301813       3.50000000
H       -3.17144540       1.32940611       3.50000000
H       -1.98506033      -2.80801034       3.50000000
H        0.43433817      -3.41119093       3.50000000
H        2.81457778      -2.71792919       3.50000000
H        0.94661430       3.79643366       3.50000000
H       -3.76115171      -1.07849290       3.50000000
