44
Properties=species:S:1:pos:R:3 pbc="F F F"
C       -0.00001600       0.00000000       0.00000000
C        1.43223500       0.00000000       0.00000000
C       -0.71616900       1.24037100       0.00000000
C       -0.71616900      -1.24037100       0.00000000
C        2.11741300      -1.24372600       0.00000000
C        2.11741300       1.24372600       0.00000000
C        0.01848000       2.45555400       0.00000000
C       -2.13583100       1.21180800       0.00000000
C       -2.13583100      -1.21180800       0.00000000
C        0.01848000      -2.45555400       0.00000000
C        1.41275800      -2.44688100       0.00000000
C        1.41275800       2.44688100       0.00000000
C       -2.82549800       0.00000000       0.00000000
H        3.20486000      -1.24647000       0.00000000
H        3.20486000       1.24647000       0.00000000
H       -0.52273900       3.39876700       0.00000000
H       -2.68215500       2.15207600       0.00000000
H       -2.68215500      -2.15207600       0.00000000
H       -0.52273900      -3.39876700       0.00000000
H        1.95638300      -3.38844400       0.00000000
H        1.95638300       3.38844400       0.00000000
H       -3.91272400       0.00000000       0.00000000
C       -0.00001071      -0.00001189       3.50000000
C        0.95835227       1.06435803       3.50000000
C       -1.40098589       0.29775291       3.50000000
C        0.44256469      -1.36218749       3.50000000
C        2.34109439       0.74132938       3.50000000
C        0.49255730       2.40575965       3.50000000
C       -1.81246672       1.65681965       3.50000000
C       -2.32969874      -0.77637393       3.50000000
C       -0.52860105      -2.39808958       3.50000000
C        1.83719778      -1.62935302       3.50000000
C        2.76370657      -0.58739917       3.50000000
C       -0.87306734       2.68716676       3.50000000
C       -1.89062719      -2.09975422       3.50000000
H        3.07077765       1.54762390       3.50000000
H        1.21816218       3.21572635       3.50000000
H       -2.87555677       1.88574824       3.50000000
H       -3.39401614      -0.55320969       3.50000000
H       -0.19540786      -3.43324953       3.50000000
H        2.17599545      -2.66268981       3.50000000
H        3.82718037      -0.81343569       3.50000000
H       -1.20902888       3.72118749       3.50000000
H       -2.61812338      -2.90772059       3.50000000
