44
Properties=species:S:1:pos:R:3 pbc="F F F"
C       -0.00001600       0.00000000       0.00000000
C        1.43223500       0.00000000       0.00000000
C       -0.71616900       1.24037100       0.00000000
C       -0.71616900      -1.24037100       0.00000000
C        2.11741300      -1.24372600       0.00000000
C        2.11741300       1.24372600       0.00000000
C        0.01848000       2.45555400       0.00000000
C       -2.13583100       1.21180800       0.00000000
C       -2.13583100      -1.21180800       0.00000000
C        0.01848000      -2.45555400       0.00000000
C        1.41275800      -2.44688100       0.00000000
C        1.41275800       2.44688100       0.00000000
C       -2.82549800       0.00000000       0.00000000
H        3.20486000      -1.24647000       0.00000000
H        3.20486000       1.24647000       0.00000000
H       -0.52273900       3.39876700       0.00000000
H       -2.68215500       2.15207600       0.00000000
H       -2.68215500      -2.15207600       0.00000000
H       -0.52273900      -3.39876700       0.00000000
H        1.95638300      -3.38844400       0.00000000
H        1.95638300       3.38844400       0.00000000
H       -3.91272400       0.00000000       0.00000000
C        0.00000414      -0.00001545       3.50000000
C       -0.37068970       1.38343278       3.50000000
C       -1.01274821      -1.01279777       3.50000000
C        1.38346456      -0.37073450       3.50000000
C        0.65332025       2.36716388       3.50000000
C       -1.74937387       1.72336393       3.50000000
C       -2.37666600      -0.61769383       3.50000000
C       -0.61772290      -2.37669331       3.50000000
C        1.72331038      -1.74941533       3.50000000
C        2.36710005       0.65339445       3.50000000
C        1.99785688       1.99791884       3.50000000
C       -2.72915423       0.73132003       3.50000000
C        0.73129269      -2.72922149       3.50000000
H        0.37451876       3.41826722       3.50000000
H       -2.03347637       2.77304687       3.50000000
H       -3.14766201      -1.38459273       3.50000000
H       -1.38455299      -3.14776104       3.50000000
H        2.77293858      -2.03376453       3.50000000
H        3.41825163       0.37473853       3.50000000
H        2.76663639       2.76671471       3.50000000
H       -3.77933475       1.01272703       3.50000000
H        1.01268749      -3.77940116       3.50000000
