44
Properties=species:S:1:pos:R:3 pbc="F F F"
C       -0.00001600       0.00000000       0.00000000
C        1.43223500       0.00000000       0.00000000
C       -0.71616900       1.24037100       0.00000000
C       -0.71616900      -1.24037100       0.00000000
C        2.11741300      -1.24372600       0.00000000
C        2.11741300       1.24372600       0.00000000
C        0.01848000       2.45555400       0.00000000
C       -2.13583100       1.21180800       0.00000000
C       -2.13583100      -1.21180800       0.00000000
C        0.01848000      -2.45555400       0.00000000
C        1.41275800      -2.44688100       0.00000000
C        1.41275800       2.44688100       0.00000000
C       -2.82549800       0.00000000       0.00000000
H        3.20486000      -1.24647000       0.00000000
H        3.20486000       1.24647000       0.00000000
H       -0.52273900       3.39876700       0.00000000
H       -2.68215500       2.15207600       0.00000000
H       -2.68215500      -2.15207600       0.00000000
H       -0.52273900      -3.39876700       0.00000000
H        1.95638300      -3.38844400       0.00000000
H        1.95638300       3.38844400       0.00000000
H       -3.91272400       0.00000000       0.00000000
C       -0.00001571      -0.00000305       3.50000000
C        1.40592081       0.27328332       3.50000000
C       -0.93968490       1.08093040       3.50000000
C       -0.46633701      -1.35423338       3.50000000
C        2.31582427      -0.81685380       3.50000000
C        1.84119605       1.62489670       3.50000000
C       -0.45040132       2.41396471       3.50000000
C       -2.32781364       0.78200791       3.50000000
C       -1.86536590      -1.59707944       3.50000000
C        0.48668226      -2.40691241       3.50000000
C        1.85368856      -2.13235797       3.50000000
C        0.91991475       2.67149184       3.50000000
C       -2.77358564      -0.53913043       3.50000000
H        3.38381538      -0.61205272       3.50000000
H        2.90814001       1.83508495       3.50000000
H       -1.16165013       3.23657877       3.50000000
H       -3.04351172       1.60075700       3.50000000
H       -2.22224080      -2.62431560       3.50000000
H        0.13538050      -3.43606538       3.50000000
H        2.56698433      -2.95289327       3.50000000
H        1.27389314       3.69948421       3.50000000
H       -3.84083624      -0.74658294       3.50000000
