44
Properties=species:S:1:pos:R:3 pbc="F F F"
C       -0.00001600       0.00000000       0.00000000
C        1.43223500       0.00000000       0.00000000
C       -0.71616900       1.24037100       0.00000000
C       -0.71616900      -1.24037100       0.00000000
C        2.11741300      -1.24372600       0.00000000
C        2.11741300       1.24372600       0.00000000
C        0.01848000       2.45555400       0.00000000
C       -2.13583100       1.21180800       0.00000000
C       -2.13583100      -1.21180800       0.00000000
C        0.01848000      -2.45555400       0.00000000
C        1.41275800      -2.44688100       0.00000000
C        1.41275800       2.44688100       0.00000000
C       -2.82549800       0.00000000       0.00000000
H        3.20486000      -1.24647000       0.00000000
H        3.20486000       1.24647000       0.00000000
H       -0.52273900       3.39876700       0.00000000
H       -2.68215500       2.15207600       0.00000000
H       -2.68215500      -2.15207600       0.00000000
H       -0.52273900      -3.39876700       0.00000000
H        1.95638300      -3.38844400       0.00000000
H        1.95638300       3.38844400       0.00000000
H       -3.91272400       0.00000000       0.00000000
C        0.00000056      -0.00001599       3.50000000
C       -0.04998428       1.43136252       3.50000000
C       -1.21462146      -0.75902105       3.50000000
C        1.26460934      -0.67244441       3.50000000
C        1.16907171       2.15952854       3.50000000
C       -1.31686500       2.07271772       3.50000000
C       -2.45470309      -0.06722886       3.50000000
C       -1.13653037      -2.17682140       3.50000000
C        1.28560923      -2.09223842       3.50000000
C        2.45341320       0.10416634       3.50000000
C        2.39608588       1.49729230       3.50000000
C       -2.49469497       1.32650247       3.50000000
C        0.09860846      -2.82377678       3.50000000
H        1.13386268       3.24640886       3.50000000
H       -1.35755869       3.15940651       3.50000000
H       -3.37845323      -0.64103582       3.50000000
H       -2.05715915      -2.75562747       3.50000000
H        2.24437087      -2.60541473       3.50000000
H        3.41493989      -0.40380530       3.50000000
H        3.31810307       2.07344621       3.50000000
H       -3.45465663       1.83693623       3.50000000
H        0.13655210      -3.91034047       3.50000000
