44
Properties=species:S:1:pos:R:3 pbc="F F F"
C       -0.00001600       0.00000000       0.00000000
C        1.43223500       0.00000000       0.00000000
C       -0.71616900       1.24037100       0.00000000
C       -0.71616900      -1.24037100       0.00000000
C        2.11741300      -1.24372600       0.00000000
C        2.11741300       1.24372600       0.00000000
C        0.01848000       2.45555400       0.00000000
C       -2.13583100       1.21180800       0.00000000
C       -2.13583100      -1.21180800       0.00000000
C        0.01848000      -2.45555400       0.00000000
C        1.41275800      -2.44688100       0.00000000
C        1.41275800       2.44688100       0.00000000
C       -2.82549800       0.00000000       0.00000000
H        3.20486000      -1.24647000       0.00000000
H        3.20486000       1.24647000       0.00000000
H       -0.52273900       3.39876700       0.00000000
H       -2.68215500       2.15207600       0.00000000
H       -2.68215500      -2.15207600       0.00000000
H       -0.52273900      -3.39876700       0.00000000
H        1.95638300      -3.38844400       0.00000000
H        1.95638300       3.38844400       0.00000000
H       -3.91272400       0.00000000       0.00000000
C       -0.00001091      -0.00001170       3.50000000
C        0.97678192       1.04747037       3.50000000
C       -1.39557601       0.32215814       3.50000000
C        0.41872384      -1.36970384       3.50000000
C        2.35367581       0.70035874       3.50000000
C        0.53446858       2.39679693       3.50000000
C       -1.78327518       1.68819922       3.50000000
C       -2.34289351      -0.73559684       3.50000000
C       -0.57037297      -2.38849898       3.50000000
C        1.80848184      -1.66116838       3.50000000
C        2.75303412      -0.63554304       3.50000000
C       -0.82603684       2.70199462       3.50000000
C       -1.92698500      -2.06643842       3.50000000
H        3.09731971       1.49379573       3.50000000
H        1.27409882       3.19397672       3.50000000
H       -2.84220797       1.93564642       3.50000000
H       -3.40315406      -0.49389168       3.50000000
H       -0.25529656      -3.42931629       3.50000000
H        2.12919369      -2.70026062       3.50000000
H        3.81240106      -0.88010530       3.50000000
H       -1.14390106       3.74172120       3.50000000
H       -2.66847135      -2.86158518       3.50000000
