44
Properties=species:S:1:pos:R:3 pbc="F F F"
C       -0.00001600       0.00000000       0.00000000
C        1.43223500       0.00000000       0.00000000
C       -0.71616900       1.24037100       0.00000000
C       -0.71616900      -1.24037100       0.00000000
C        2.11741300      -1.24372600       0.00000000
C        2.11741300       1.24372600       0.00000000
C        0.01848000       2.45555400       0.00000000
C       -2.13583100       1.21180800       0.00000000
C       -2.13583100      -1.21180800       0.00000000
C        0.01848000      -2.45555400       0.00000000
C        1.41275800      -2.44688100       0.00000000
C        1.41275800       2.44688100       0.00000000
C       -2.82549800       0.00000000       0.00000000
H        3.20486000      -1.24647000       0.00000000
H        3.20486000       1.24647000       0.00000000
H       -0.52273900       3.39876700       0.00000000
H       -2.68215500       2.15207600       0.00000000
H       -2.68215500      -2.15207600       0.00000000
H       -0.52273900      -3.39876700       0.00000000
H        1.95638300      -3.38844400       0.00000000
H        1.95638300       3.38844400       0.00000000
H       -3.91272400       0.00000000       0.00000000
C       -0.00001504      -0.00000547       3.50000000
C        1.34586066       0.48985322       3.50000000
C       -1.09721059       0.92062325       3.50000000
C       -0.24874686      -1.41051170       3.50000000
C        2.41509672      -0.44452225       3.50000000
C        1.56433803       1.89291804       3.50000000
C       -0.82248341       2.31378651       3.50000000
C       -2.42148738       0.40822981       3.50000000
C       -1.59256188      -1.86922426       3.50000000
C        0.85721445      -2.30114544       3.50000000
C        2.16444086      -1.81612433       3.50000000
C        0.49067568       2.78250771       3.50000000
C       -2.65509962      -0.96637723       3.50000000
H        3.43790114      -0.07517198       3.50000000
H        2.58526544       2.26742534       3.50000000
H       -1.65366076       3.01500900       3.50000000
H       -3.25645460       1.10493890       3.50000000
H       -1.78434792      -2.93964097       3.50000000
H        0.67123280      -3.37258354       3.50000000
H        2.99731477      -2.51497343       3.50000000
H        0.67948257       3.85321822       3.50000000
H       -3.67675787      -1.33823042       3.50000000
