44
Properties=species:S:1:pos:R:3 pbc="F F F"
C       -0.00001600       0.00000000       0.00000000
C        1.43223500       0.00000000       0.00000000
C       -0.71616900       1.24037100       0.00000000
C       -0.71616900      -1.24037100       0.00000000
C        2.11741300      -1.24372600       0.00000000
C        2.11741300       1.24372600       0.00000000
C        0.01848000       2.45555400       0.00000000
C       -2.13583100       1.21180800       0.00000000
C       -2.13583100      -1.21180800       0.00000000
C        0.01848000      -2.45555400       0.00000000
C        1.41275800      -2.44688100       0.00000000
C        1.41275800       2.44688100       0.00000000
C       -2.82549800       0.00000000       0.00000000
H        3.20486000      -1.24647000       0.00000000
H        3.20486000       1.24647000       0.00000000
H       -0.52273900       3.39876700       0.00000000
H       -2.68215500       2.15207600       0.00000000
H       -2.68215500      -2.15207600       0.00000000
H       -0.52273900      -3.39876700       0.00000000
H        1.95638300      -3.38844400       0.00000000
H        1.95638300       3.38844400       0.00000000
H       -3.91272400       0.00000000       0.00000000
C       -0.00000387      -0.00001552       3.50000000
C        0.34648901       1.38969150       3.50000000
C       -1.37678364      -0.39482282       3.50000000
C        1.03026972      -0.99496862       3.50000000
C        1.71903059       1.75363223       3.50000000
C       -0.69453346       2.35540134       3.50000000
C       -2.37814284       0.61198334       3.50000000
C       -1.69251641      -1.77922480       3.50000000
C        0.65910784      -2.36555058       3.50000000
C        2.38708427      -0.57612121       3.50000000
C        2.71597527       0.77883896       3.50000000
C       -2.03242108       1.96274714       3.50000000
C       -0.68354983      -2.74156863       3.50000000
H        1.98477032       2.80811358       3.50000000
H       -0.43411871       3.41121035       3.50000000
H       -3.42427110       0.31502474       3.50000000
H       -2.73702217      -2.08184923       3.50000000
H        1.43927812      -3.12311784       3.50000000
H        3.17134708      -1.32944757       3.50000000
H        3.76108462       1.07853127       3.50000000
H       -2.81450085       2.71800886       3.50000000
H       -0.94657361      -3.79649938       3.50000000
