44
Properties=species:S:1:pos:R:3 pbc="F F F"
C       -0.00001600       0.00000000       0.00000000
C        1.43223500       0.00000000       0.00000000
C       -0.71616900       1.24037100       0.00000000
C       -0.71616900      -1.24037100       0.00000000
C        2.11741300      -1.24372600       0.00000000
C        2.11741300       1.24372600       0.00000000
C        0.01848000       2.45555400       0.00000000
C       -2.13583100       1.21180800       0.00000000
C       -2.13583100      -1.21180800       0.00000000
C        0.01848000      -2.45555400       0.00000000
C        1.41275800      -2.44688100       0.00000000
C        1.41275800       2.44688100       0.00000000
C       -2.82549800       0.00000000       0.00000000
H        3.20486000      -1.24647000       0.00000000
H        3.20486000       1.24647000       0.00000000
H       -0.52273900       3.39876700       0.00000000
H       -2.68215500       2.15207600       0.00000000
H       -2.68215500      -2.15207600       0.00000000
H       -0.52273900      -3.39876700       0.00000000
H        1.95638300      -3.38844400       0.00000000
H        1.95638300       3.38844400       0.00000000
H       -3.91272400       0.00000000       0.00000000
C       -0.00001600       0.00000000       3.50000000
C        1.43223500       0.00000000       3.50000000
C       -0.71616900       1.24037100       3.50000000
C       -0.71616900      -1.24037100       3.50000000
C        2.11741300      -1.24372600       3.50000000
C        2.11741300       1.24372600       3.50000000
C        0.01848000       2.45555400       3.50000000
C       -2.13583100       1.21180800       3.50000000
C       -2.13583100      -1.21180800       3.50000000
C        0.01848000      -2.45555400       3.50000000
C        1.41275800      -2.44688100       3.50000000
C        1.41275800       2.44688100       3.50000000
C       -2.82549800       0.00000000       3.50000000
H        3.20486000      -1.24647000       3.50000000
H        3.20486000       1.24647000       3.50000000
H       -0.52273900       3.39876700       3.50000000
H       -2.68215500       2.15207600       3.50000000
H       -2.68215500      -2.15207600       3.50000000
H       -0.52273900      -3.39876700       3.50000000
H        1.95638300      -3.38844400       3.50000000
H        1.95638300       3.38844400       3.50000000
H       -3.91272400       0.00000000       3.50000000
