44
Properties=species:S:1:pos:R:3 pbc="F F F"
C       -0.00001600       0.00000000       0.00000000
C        1.43223500       0.00000000       0.00000000
C       -0.71616900       1.24037100       0.00000000
C       -0.71616900      -1.24037100       0.00000000
C        2.11741300      -1.24372600       0.00000000
C        2.11741300       1.24372600       0.00000000
C        0.01848000       2.45555400       0.00000000
C       -2.13583100       1.21180800       0.00000000
C       -2.13583100      -1.21180800       0.00000000
C        0.01848000      -2.45555400       0.00000000
C        1.41275800      -2.44688100       0.00000000
C        1.41275800       2.44688100       0.00000000
C       -2.82549800       0.00000000       0.00000000
H        3.20486000      -1.24647000       0.00000000
H        3.20486000       1.24647000       0.00000000
H       -0.52273900       3.39876700       0.00000000
H       -2.68215500       2.15207600       0.00000000
H       -2.68215500      -2.15207600       0.00000000
H       -0.52273900      -3.39876700       0.00000000
H        1.95638300      -3.38844400       0.00000000
H        1.95638300       3.38844400       0.00000000
H       -3.91272400       0.00000000       0.00000000
C       -0.00001326      -0.00000895       3.50000000
C        1.18737663       0.80089565       3.50000000
C       -1.28733767       0.62783754       3.50000000
C        0.09987565      -1.42879079       3.50000000
C        2.45089769       0.15294674       3.50000000
C        1.05993218       2.21513791       3.50000000
C       -1.35780776       2.04608041       3.50000000
C       -2.44831858      -0.18970718       3.50000000
C       -1.09304971      -2.19897590       3.50000000
C        1.38844899      -2.02541264       3.50000000
C        2.53950795      -1.23855204       3.50000000
C       -0.19704903       2.81856053       3.50000000
C       -2.34244400      -1.57999843       3.50000000
H        3.35396653       0.75876451       3.50000000
H        1.95993218       2.82550543       3.50000000
H       -2.33393666       2.52539360       3.50000000
H       -3.42703290       0.28430982       3.50000000
H       -1.02018164      -3.28399391       3.50000000
H        1.46719612      -3.11001748       3.50000000
H        3.51670885      -1.71515190       3.50000000
H       -0.27287883       3.90314288       3.50000000
H       -3.24379521      -2.18796749       3.50000000
