44
Properties=species:S:1:pos:R:3 pbc="F F F"
C       -0.00001600       0.00000000       0.00000000
C        1.43223500       0.00000000       0.00000000
C       -0.71616900       1.24037100       0.00000000
C       -0.71616900      -1.24037100       0.00000000
C        2.11741300      -1.24372600       0.00000000
C        2.11741300       1.24372600       0.00000000
C        0.01848000       2.45555400       0.00000000
C       -2.13583100       1.21180800       0.00000000
C       -2.13583100      -1.21180800       0.00000000
C        0.01848000      -2.45555400       0.00000000
C        1.41275800      -2.44688100       0.00000000
C        1.41275800       2.44688100       0.00000000
C       -2.82549800       0.00000000       0.00000000
H        3.20486000      -1.24647000       0.00000000
H        3.20486000       1.24647000       0.00000000
H       -0.52273900       3.39876700       0.00000000
H       -2.68215500       2.15207600       0.00000000
H       -2.68215500      -2.15207600       0.00000000
H       -0.52273900      -3.39876700       0.00000000
H        1.95638300      -3.38844400       0.00000000
H        1.95638300       3.38844400       0.00000000
H       -3.91272400       0.00000000       0.00000000
C        0.00000139      -0.00001594       3.50000000
C       -0.12482751       1.42678491       3.50000000
C       -1.17323277      -0.82154922       3.50000000
C        1.29806925      -0.60533830       3.50000000
C        1.05444854       2.21775347       3.50000000
C       -1.42353795       2.00095774       3.50000000
C       -2.44782051      -0.19560595       3.50000000
C       -1.02104677      -2.23331954       3.50000000
C        1.39334664      -2.02208749       3.50000000
C        2.44459924       0.23242531       3.50000000
C        2.31443991       1.62064176       3.50000000
C       -2.56069985       1.19412230       3.50000000
C        0.24625838      -2.81474613       3.50000000
H        0.96240485       3.30130156       3.50000000
H       -1.52104876       3.08402752       3.50000000
H       -3.34027396      -0.81697188       3.50000000
H       -1.91012149      -2.85951437       3.50000000
H        2.37765191      -2.48438281       3.50000000
H        3.43139337      -0.22452776       3.50000000
H        3.20503993       2.24426073       3.50000000
H       -3.54605996       1.65361602       3.50000000
H        0.34101637      -3.89783490       3.50000000
