44
Properties=species:S:1:pos:R:3 pbc="F F F"
C       -0.00001600       0.00000000       0.00000000
C        1.43223500       0.00000000       0.00000000
C       -0.71616900       1.24037100       0.00000000
C       -0.71616900      -1.24037100       0.00000000
C        2.11741300      -1.24372600       0.00000000
C        2.11741300       1.24372600       0.00000000
C        0.01848000       2.45555400       0.00000000
C       -2.13583100       1.21180800       0.00000000
C       -2.13583100      -1.21180800       0.00000000
C        0.01848000      -2.45555400       0.00000000
C        1.41275800      -2.44688100       0.00000000
C        1.41275800       2.44688100       0.00000000
C       -2.82549800       0.00000000       0.00000000
H        3.20486000      -1.24647000       0.00000000
H        3.20486000       1.24647000       0.00000000
H       -0.52273900       3.39876700       0.00000000
H       -2.68215500       2.15207600       0.00000000
H       -2.68215500      -2.15207600       0.00000000
H       -0.52273900      -3.39876700       0.00000000
H        1.95638300      -3.38844400       0.00000000
H        1.95638300       3.38844400       0.00000000
H       -3.91272400       0.00000000       0.00000000
C       -0.00001596      -0.00000112       3.50000000
C        1.42874615       0.09990766       3.50000000
C       -0.80094836       1.18739209       3.50000000
C       -0.62790054      -1.28730694       3.50000000
C        2.19901303      -1.09299308       3.50000000
C        2.02549715       1.38839961       3.50000000
C       -0.15285580       2.45086149       3.50000000
C       -2.21515968       1.05986806       3.50000000
C       -2.04609677      -1.35784414       3.50000000
C        0.18972577      -2.44828329       3.50000000
C        1.58000238      -2.34237150       3.50000000
C        1.23863080       2.53946954       3.50000000
C       -2.81861523      -0.19709678       3.50000000
H        3.28400247      -1.01987393       3.50000000
H        3.11010377       1.46699339       3.50000000
H       -0.75855164       3.35402335       3.50000000
H       -2.82574264       1.95973598       3.50000000
H       -2.52550017      -2.33393133       3.50000000
H       -0.28437963      -3.42695220       3.50000000
H        2.18798325      -3.24371954       3.50000000
H        1.71525144       3.51666030       3.50000000
H       -3.90319280      -0.27293783       3.50000000
