44
Properties=species:S:1:pos:R:3 pbc="F F F"
C       -0.00001600       0.00000000       0.00000000
C        1.43223500       0.00000000       0.00000000
C       -0.71616900       1.24037100       0.00000000
C       -0.71616900      -1.24037100       0.00000000
C        2.11741300      -1.24372600       0.00000000
C        2.11741300       1.24372600       0.00000000
C        0.01848000       2.45555400       0.00000000
C       -2.13583100       1.21180800       0.00000000
C       -2.13583100      -1.21180800       0.00000000
C        0.01848000      -2.45555400       0.00000000
C        1.41275800      -2.44688100       0.00000000
C        1.41275800       2.44688100       0.00000000
C       -2.82549800       0.00000000       0.00000000
H        3.20486000      -1.24647000       0.00000000
H        3.20486000       1.24647000       0.00000000
H       -0.52273900       3.39876700       0.00000000
H       -2.68215500       2.15207600       0.00000000
H       -2.68215500      -2.15207600       0.00000000
H       -0.52273900      -3.39876700       0.00000000
H        1.95638300      -3.38844400       0.00000000
H        1.95638300       3.38844400       0.00000000
H       -3.91272400       0.00000000       0.00000000
C       -0.00001450      -0.00000676       3.50000000
C        1.29804573       0.60528867       3.50000000
C       -1.17327298       0.82149180       3.50000000
C       -0.12486611      -1.42682399       3.50000000
C        2.44464921      -0.23234116       3.50000000
C        1.39340657       2.02205596       3.50000000
C       -1.02101340       2.23329770       3.50000000
C       -2.44785246       0.19562984       3.50000000
C       -1.42358808      -2.00091221       3.50000000
C        1.05451053      -2.21767773       3.50000000
C        2.31449017      -1.62056997       3.50000000
C        0.24629698       2.81468463       3.50000000
C       -2.56077084      -1.19410705       3.50000000
H        3.43137056       0.22474690       3.50000000
H        2.37780859       2.48411783       3.50000000
H       -1.91014343       2.85940995       3.50000000
H       -3.34036458       0.81691555       3.50000000
H       -1.52135134      -3.08397092       3.50000000
H        0.96261858      -3.30124805       3.50000000
H        3.20510346      -2.24417000       3.50000000
H        0.34106683       3.89777637       3.50000000
H       -3.54613223      -1.65358862       3.50000000
