44
Properties=species:S:1:pos:R:3 pbc="F F F"
C       -0.00001600       0.00000000       0.00000000
C        1.43223500       0.00000000       0.00000000
C       -0.71616900       1.24037100       0.00000000
C       -0.71616900      -1.24037100       0.00000000
C        2.11741300      -1.24372600       0.00000000
C        2.11741300       1.24372600       0.00000000
C        0.01848000       2.45555400       0.00000000
C       -2.13583100       1.21180800       0.00000000
C       -2.13583100      -1.21180800       0.00000000
C        0.01848000      -2.45555400       0.00000000
C        1.41275800      -2.44688100       0.00000000
C        1.41275800       2.44688100       0.00000000
C       -2.82549800       0.00000000       0.00000000
H        3.20486000      -1.24647000       0.00000000
H        3.20486000       1.24647000       0.00000000
H       -0.52273900       3.39876700       0.00000000
H       -2.68215500       2.15207600       0.00000000
H       -2.68215500      -2.15207600       0.00000000
H       -0.52273900      -3.39876700       0.00000000
H        1.95638300      -3.38844400       0.00000000
H        1.95638300       3.38844400       0.00000000
H       -3.91272400       0.00000000       0.00000000
C       -0.00001600      -0.00000028       3.50000000
C        1.43201686       0.02499595       3.50000000
C       -0.73770738       1.22768321       3.50000000
C       -0.69441247      -1.25268096       3.50000000
C        2.13879652      -1.20658262       3.50000000
C        2.09538450       1.28049053       3.50000000
C       -0.02437814       2.45550253       3.50000000
C       -2.15665467       1.17434805       3.50000000
C       -2.11435674      -1.24889883       3.50000000
C        0.06133251      -2.45485749       3.50000000
C        1.45524679      -2.42185230       3.50000000
C        1.36983887       2.47116435       3.50000000
C       -2.82506766      -0.04931174       3.50000000
H        3.22612579      -1.19034764       3.50000000
H        3.18261798       1.30221268       3.50000000
H       -0.58197605       3.38912630       3.50000000
H       -2.71930540       2.10493817       3.50000000
H       -2.64418759      -2.19855829       3.50000000
H       -0.46334272      -3.40737240       3.50000000
H        2.01522154      -3.35378433       3.50000000
H        1.89694853       3.42207151       3.50000000
H       -3.91212807      -0.06828645       3.50000000
