44
Properties=species:S:1:pos:R:3 pbc="F F F"
C       -0.00001600       0.00000000       0.00000000
C        1.43223500       0.00000000       0.00000000
C       -0.71616900       1.24037100       0.00000000
C       -0.71616900      -1.24037100       0.00000000
C        2.11741300      -1.24372600       0.00000000
C        2.11741300       1.24372600       0.00000000
C        0.01848000       2.45555400       0.00000000
C       -2.13583100       1.21180800       0.00000000
C       -2.13583100      -1.21180800       0.00000000
C        0.01848000      -2.45555400       0.00000000
C        1.41275800      -2.44688100       0.00000000
C        1.41275800       2.44688100       0.00000000
C       -2.82549800       0.00000000       0.00000000
H        3.20486000      -1.24647000       0.00000000
H        3.20486000       1.24647000       0.00000000
H       -0.52273900       3.39876700       0.00000000
H       -2.68215500       2.15207600       0.00000000
H       -2.68215500      -2.15207600       0.00000000
H       -0.52273900      -3.39876700       0.00000000
H        1.95638300      -3.38844400       0.00000000
H        1.95638300       3.38844400       0.00000000
H       -3.91272400       0.00000000       0.00000000
C       -0.00001413      -0.00000751       3.50000000
C        1.26458845       0.67239360       3.50000000
C       -1.21465861       0.75896161       3.50000000
C       -0.05002078      -1.43140357       3.50000000
C        2.45345870      -0.10407969       3.50000000
C        1.28567072       2.09221007       3.50000000
C       -1.13649590       2.17680133       3.50000000
C       -2.45473624       0.06725104       3.50000000
C       -1.31691744      -2.07267487       3.50000000
C        1.16912965      -2.15944966       3.50000000
C        2.39613232      -1.49721798       3.50000000
C        0.09865023       2.82371740       3.50000000
C       -2.49476666      -1.32649096       3.50000000
H        3.41490564       0.40402295       3.50000000
H        2.24454120       2.60515832       3.50000000
H       -2.05717560       2.75552205       3.50000000
H       -3.37854078       0.64097482       3.50000000
H       -1.35786382      -3.15936582       3.50000000
H        1.13407331      -3.24634424       3.50000000
H        3.31816176      -2.07335229       3.50000000
H        0.13660556       3.91028466       3.50000000
H       -3.45473024      -1.83691265       3.50000000
